 Abaqus/Standard 2022                  DATE 25-4ÔÂ-2023 TIME 23:03:22
 SUMMARY OF JOB INFORMATION:
 STEP  INC ATT SEVERE EQUIL TOTAL  TOTAL      STEP       INC OF       DOF    IF
               DISCON ITERS ITERS  TIME/    TIME/LPF    TIME/LPF    MONITOR RIKS
               ITERS               FREQ
   1     1   1     0     1     1  0.0178     0.0178     0.01780   
   1     2   1     0     1     1  0.0356     0.0356     0.01780   
   1     3   1     0     1     1  0.0534     0.0534     0.01780   
   1     4   1     0     1     1  0.0712     0.0712     0.01780   
   1     5   1     0     1     1  0.0890     0.0890     0.01780   
   1     6   1     0     1     1  0.107      0.107      0.01780   
   1     7   1     0     1     1  0.125      0.125      0.01780   
   1     8   1     0     1     1  0.142      0.142      0.01780   
   1     9   1     0     1     1  0.160      0.160      0.01780   
   1    10   1     0     1     1  0.178      0.178      0.01780   
   1    11   1     0     1     1  0.196      0.196      0.01780   
   1    12   1     0     1     1  0.214      0.214      0.01780   
   1    13   1     0     1     1  0.231      0.231      0.01780   
   1    14   1     0     1     1  0.249      0.249      0.01780   
   1    15   1     0     1     1  0.267      0.267      0.01780   
   1    16   1     0     1     1  0.285      0.285      0.01780   
   1    17   1     0     1     1  0.303      0.303      0.01780   
   1    18   1     0     1     1  0.320      0.320      0.01780   
   1    19   1     0     1     1  0.338      0.338      0.01780   
   1    20   1     0     1     1  0.356      0.356      0.01780   
   1    21   1     0     1     1  0.374      0.374      0.01780   
   1    22   1     0     1     1  0.392      0.392      0.01780   
   1    23   1     0     1     1  0.409      0.409      0.01780   
   1    24   1     0     1     1  0.427      0.427      0.01780   
   1    25   1     0     1     1  0.445      0.445      0.01780   
   1    26   1     0     1     1  0.463      0.463      0.01780   
   1    27   1     0     1     1  0.481      0.481      0.01780   
   1    28   1     0     1     1  0.498      0.498      0.01780   
   1    29   1     0     1     1  0.516      0.516      0.01780   
   1    30   1     0     1     1  0.534      0.534      0.01780   
   1    31   1     0     1     1  0.552      0.552      0.01780   
   1    32   1     0     1     1  0.570      0.570      0.01780   
   1    33   1     0     1     1  0.587      0.587      0.01780   
   1    34   1     0     1     1  0.605      0.605      0.01780   
   1    35   1     0     1     1  0.623      0.623      0.01780   
   1    36   1     0     1     1  0.641      0.641      0.01780   
   1    37   1     0     1     1  0.659      0.659      0.01780   
   1    38   1     0     1     1  0.676      0.676      0.01780   
   1    39   1     0     2     2  0.694      0.694      0.01780   
   1    40   1     0     2     2  0.712      0.712      0.01780   
   1    41   1     0     2     2  0.730      0.730      0.01780   
   1    42   1     0     2     2  0.748      0.748      0.01780   
   1    43   1     0     2     2  0.765      0.765      0.01780   
   1    44   1     0     2     2  0.783      0.783      0.01780   
   1    45   1     0     2     2  0.801      0.801      0.01780   
   1    46   1     0     1     1  0.819      0.819      0.01780   
   1    47   1     0     1     1  0.837      0.837      0.01780   
   1    48   1     0     1     1  0.854      0.854      0.01780   
   1    49   1     0     1     1  0.872      0.872      0.01780   
   1    50   1     0     1     1  0.890      0.890      0.01780   
   1    51   1     0     1     1  0.908      0.908      0.01780   
   1    52   1     0     1     1  0.926      0.926      0.01780   
   1    53   1     0     1     1  0.943      0.943      0.01780   
   1    54   1     0     1     1  0.961      0.961      0.01780   
   1    55   1     0     1     1  0.979      0.979      0.01780   
   1    56   1     0     1     1  0.997      0.997      0.01780   
   1    57   1     0     1     1  1.00       1.00       0.003200  
                          
 THE ANALYSIS HAS COMPLETED SUCCESSFULLY
