 Abaqus/Standard 2022                  DATE 25-4ÔÂ-2023 TIME 23:13:39
 SUMMARY OF JOB INFORMATION:
 STEP  INC ATT SEVERE EQUIL TOTAL  TOTAL      STEP       INC OF       DOF    IF
               DISCON ITERS ITERS  TIME/    TIME/LPF    TIME/LPF    MONITOR RIKS
               ITERS               FREQ
   1     1   1     0     1     1  0.00440    0.00440    0.004400  
   1     2   1     0     1     1  0.00880    0.00880    0.004400  
   1     3   1     0     1     1  0.0132     0.0132     0.004400  
   1     4   1     0     1     1  0.0176     0.0176     0.004400  
   1     5   1     0     1     1  0.0220     0.0220     0.004400  
   1     6   1     0     1     1  0.0264     0.0264     0.004400  
   1     7   1     0     1     1  0.0308     0.0308     0.004400  
   1     8   1     0     1     1  0.0352     0.0352     0.004400  
   1     9   1     0     1     1  0.0396     0.0396     0.004400  
   1    10   1     0     1     1  0.0440     0.0440     0.004400  
   1    11   1     0     1     1  0.0484     0.0484     0.004400  
   1    12   1     0     1     1  0.0528     0.0528     0.004400  
   1    13   1     0     1     1  0.0572     0.0572     0.004400  
   1    14   1     0     1     1  0.0616     0.0616     0.004400  
   1    15   1     0     1     1  0.0660     0.0660     0.004400  
   1    16   1     0     1     1  0.0704     0.0704     0.004400  
   1    17   1     0     1     1  0.0748     0.0748     0.004400  
   1    18   1     0     1     1  0.0792     0.0792     0.004400  
   1    19   1     0     1     1  0.0836     0.0836     0.004400  
   1    20   1     0     1     1  0.0880     0.0880     0.004400  
   1    21   1     0     1     1  0.0924     0.0924     0.004400  
   1    22   1     0     1     1  0.0968     0.0968     0.004400  
   1    23   1     0     1     1  0.101      0.101      0.004400  
   1    24   1     0     1     1  0.106      0.106      0.004400  
   1    25   1     0     1     1  0.110      0.110      0.004400  
   1    26   1     0     1     1  0.114      0.114      0.004400  
   1    27   1     0     1     1  0.119      0.119      0.004400  
   1    28   1     0     1     1  0.123      0.123      0.004400  
   1    29   1     0     1     1  0.128      0.128      0.004400  
   1    30   1     0     1     1  0.132      0.132      0.004400  
   1    31   1     0     1     1  0.136      0.136      0.004400  
   1    32   1     0     1     1  0.141      0.141      0.004400  
   1    33   1     0     1     1  0.145      0.145      0.004400  
   1    34   1     0     1     1  0.150      0.150      0.004400  
   1    35   1     0     1     1  0.154      0.154      0.004400  
   1    36   1     0     1     1  0.158      0.158      0.004400  
   1    37   1     0     1     1  0.163      0.163      0.004400  
   1    38   1     0     1     1  0.167      0.167      0.004400  
   1    39   1     0     1     1  0.172      0.172      0.004400  
   1    40   1     0     1     1  0.176      0.176      0.004400  
   1    41   1     0     1     1  0.180      0.180      0.004400  
   1    42   1     0     1     1  0.185      0.185      0.004400  
   1    43   1     0     1     1  0.189      0.189      0.004400  
   1    44   1     0     1     1  0.194      0.194      0.004400  
   1    45   1     0     1     1  0.198      0.198      0.004400  
   1    46   1     0     1     1  0.202      0.202      0.004400  
   1    47   1     0     1     1  0.207      0.207      0.004400  
   1    48   1     0     1     1  0.211      0.211      0.004400  
   1    49   1     0     1     1  0.216      0.216      0.004400  
   1    50   1     0     1     1  0.220      0.220      0.004400  
   1    51   1     0     1     1  0.224      0.224      0.004400  
   1    52   1     0     1     1  0.229      0.229      0.004400  
   1    53   1     0     1     1  0.233      0.233      0.004400  
   1    54   1     0     1     1  0.238      0.238      0.004400  
   1    55   1     0     1     1  0.242      0.242      0.004400  
   1    56   1     0     1     1  0.246      0.246      0.004400  
   1    57   1     0     1     1  0.251      0.251      0.004400  
   1    58   1     0     1     1  0.255      0.255      0.004400  
   1    59   1     0     1     1  0.260      0.260      0.004400  
   1    60   1     0     1     1  0.264      0.264      0.004400  
   1    61   1     0     1     1  0.268      0.268      0.004400  
   1    62   1     0     1     1  0.273      0.273      0.004400  
   1    63   1     0     1     1  0.277      0.277      0.004400  
   1    64   1     0     1     1  0.282      0.282      0.004400  
   1    65   1     0     1     1  0.286      0.286      0.004400  
   1    66   1     0     1     1  0.290      0.290      0.004400  
   1    67   1     0     1     1  0.295      0.295      0.004400  
   1    68   1     0     1     1  0.299      0.299      0.004400  
   1    69   1     0     1     1  0.304      0.304      0.004400  
   1    70   1     0     1     1  0.308      0.308      0.004400  
   1    71   1     0     1     1  0.312      0.312      0.004400  
   1    72   1     0     1     1  0.317      0.317      0.004400  
   1    73   1     0     1     1  0.321      0.321      0.004400  
   1    74   1     0     1     1  0.326      0.326      0.004400  
   1    75   1     0     1     1  0.330      0.330      0.004400  
   1    76   1     0     1     1  0.334      0.334      0.004400  
   1    77   1     0     1     1  0.339      0.339      0.004400  
   1    78   1     0     1     1  0.343      0.343      0.004400  
   1    79   1     0     1     1  0.348      0.348      0.004400  
   1    80   1     0     1     1  0.352      0.352      0.004400  
   1    81   1     0     1     1  0.356      0.356      0.004400  
   1    82   1     0     1     1  0.361      0.361      0.004400  
   1    83   1     0     1     1  0.365      0.365      0.004400  
   1    84   1     0     1     1  0.370      0.370      0.004400  
   1    85   1     0     1     1  0.374      0.374      0.004400  
   1    86   1     0     1     1  0.378      0.378      0.004400  
   1    87   1     0     1     1  0.383      0.383      0.004400  
   1    88   1     0     1     1  0.387      0.387      0.004400  
   1    89   1     0     1     1  0.392      0.392      0.004400  
   1    90   1     0     1     1  0.396      0.396      0.004400  
   1    91   1     0     1     1  0.400      0.400      0.004400  
   1    92   1     0     1     1  0.405      0.405      0.004400  
   1    93   1     0     1     1  0.409      0.409      0.004400  
   1    94   1     0     1     1  0.414      0.414      0.004400  
   1    95   1     0     1     1  0.418      0.418      0.004400  
   1    96   1     0     1     1  0.422      0.422      0.004400  
   1    97   1     0     1     1  0.427      0.427      0.004400  
   1    98   1     0     1     1  0.431      0.431      0.004400  
   1    99   1     0     1     1  0.436      0.436      0.004400  
   1   100   1     0     1     1  0.440      0.440      0.004400  
   1   101   1     0     1     1  0.444      0.444      0.004400  
   1   102   1     0     1     1  0.449      0.449      0.004400  
   1   103   1     0     1     1  0.453      0.453      0.004400  
   1   104   1     0     1     1  0.458      0.458      0.004400  
   1   105   1     0     1     1  0.462      0.462      0.004400  
   1   106   1     0     1     1  0.466      0.466      0.004400  
   1   107   1     0     1     1  0.471      0.471      0.004400  
   1   108   1     0     1     1  0.475      0.475      0.004400  
   1   109   1     0     1     1  0.480      0.480      0.004400  
   1   110   1     0     1     1  0.484      0.484      0.004400  
   1   111   1     0     1     1  0.488      0.488      0.004400  
   1   112   1     0     1     1  0.493      0.493      0.004400  
   1   113   1     0     1     1  0.497      0.497      0.004400  
   1   114   1     0     1     1  0.502      0.502      0.004400  
   1   115   1     0     1     1  0.506      0.506      0.004400  
   1   116   1     0     1     1  0.510      0.510      0.004400  
   1   117   1     0     1     1  0.515      0.515      0.004400  
   1   118   1     0     1     1  0.519      0.519      0.004400  
   1   119   1     0     1     1  0.524      0.524      0.004400  
   1   120   1     0     1     1  0.528      0.528      0.004400  
   1   121   1     0     1     1  0.532      0.532      0.004400  
   1   122   1     0     1     1  0.537      0.537      0.004400  
   1   123   1     0     1     1  0.541      0.541      0.004400  
   1   124   1     0     1     1  0.546      0.546      0.004400  
   1   125   1     0     1     1  0.550      0.550      0.004400  
   1   126   1     0     1     1  0.554      0.554      0.004400  
   1   127   1     0     1     1  0.559      0.559      0.004400  
   1   128   1     0     1     1  0.563      0.563      0.004400  
   1   129   1     0     1     1  0.568      0.568      0.004400  
   1   130   1     0     1     1  0.572      0.572      0.004400  
   1   131   1     0     1     1  0.576      0.576      0.004400  
   1   132   1     0     1     1  0.581      0.581      0.004400  
   1   133   1     0     1     1  0.585      0.585      0.004400  
   1   134   1     0     1     1  0.590      0.590      0.004400  
   1   135   1     0     1     1  0.594      0.594      0.004400  
   1   136   1     0     1     1  0.598      0.598      0.004400  
   1   137   1     0     1     1  0.603      0.603      0.004400  
   1   138   1     0     1     1  0.607      0.607      0.004400  
   1   139   1     0     1     1  0.612      0.612      0.004400  
   1   140   1     0     1     1  0.616      0.616      0.004400  
   1   141   1     0     1     1  0.620      0.620      0.004400  
   1   142   1     0     1     1  0.625      0.625      0.004400  
   1   143   1     0     1     1  0.629      0.629      0.004400  
   1   144   1     0     1     1  0.634      0.634      0.004400  
   1   145   1     0     1     1  0.638      0.638      0.004400  
   1   146   1     0     1     1  0.642      0.642      0.004400  
   1   147   1     0     1     1  0.647      0.647      0.004400  
   1   148   1     0     1     1  0.651      0.651      0.004400  
   1   149   1     0     1     1  0.656      0.656      0.004400  
   1   150   1     0     1     1  0.660      0.660      0.004400  
   1   151   1     0     1     1  0.664      0.664      0.004400  
   1   152   1     0     1     1  0.669      0.669      0.004400  
   1   153   1     0     1     1  0.673      0.673      0.004400  
   1   154   1     0     1     1  0.678      0.678      0.004400  
   1   155   1     0     1     1  0.682      0.682      0.004400  
   1   156   1     0     1     1  0.686      0.686      0.004400  
   1   157   1     0     1     1  0.691      0.691      0.004400  
   1   158   1     0     1     1  0.695      0.695      0.004400  
   1   159   1     0     1     1  0.700      0.700      0.004400  
   1   160   1     0     1     1  0.704      0.704      0.004400  
   1   161   1     0     1     1  0.708      0.708      0.004400  
   1   162   1     0     1     1  0.713      0.713      0.004400  
   1   163   1     0     1     1  0.717      0.717      0.004400  
   1   164   1     0     1     1  0.722      0.722      0.004400  
   1   165   1     0     1     1  0.726      0.726      0.004400  
   1   166   1     0     1     1  0.730      0.730      0.004400  
   1   167   1     0     1     1  0.735      0.735      0.004400  
   1   168   1     0     1     1  0.739      0.739      0.004400  
   1   169   1     0     1     1  0.744      0.744      0.004400  
   1   170   1     0     1     1  0.748      0.748      0.004400  
   1   171   1     0     1     1  0.752      0.752      0.004400  
   1   172   1     0     1     1  0.757      0.757      0.004400  
   1   173   1     0     1     1  0.761      0.761      0.004400  
   1   174   1     0     1     1  0.766      0.766      0.004400  
   1   175   1     0     1     1  0.770      0.770      0.004400  
   1   176   1     0     1     1  0.774      0.774      0.004400  
   1   177   1     0     1     1  0.779      0.779      0.004400  
   1   178   1     0     1     1  0.783      0.783      0.004400  
   1   179   1     0     1     1  0.788      0.788      0.004400  
   1   180   1     0     1     1  0.792      0.792      0.004400  
   1   181   1     0     1     1  0.796      0.796      0.004400  
   1   182   1     0     1     1  0.801      0.801      0.004400  
   1   183   1     0     1     1  0.805      0.805      0.004400  
   1   184   1     0     1     1  0.810      0.810      0.004400  
   1   185   1     0     1     1  0.814      0.814      0.004400  
   1   186   1     0     1     1  0.818      0.818      0.004400  
   1   187   1     0     1     1  0.823      0.823      0.004400  
   1   188   1     0     1     1  0.827      0.827      0.004400  
   1   189   1     0     1     1  0.832      0.832      0.004400  
   1   190   1     0     1     1  0.836      0.836      0.004400  
   1   191   1     0     1     1  0.840      0.840      0.004400  
   1   192   1     0     1     1  0.845      0.845      0.004400  
   1   193   1     0     1     1  0.849      0.849      0.004400  
   1   194   1     0     1     1  0.854      0.854      0.004400  
   1   195   1     0     1     1  0.858      0.858      0.004400  
   1   196   1     0     1     1  0.862      0.862      0.004400  
   1   197   1     0     1     1  0.867      0.867      0.004400  
   1   198   1     0     1     1  0.871      0.871      0.004400  
   1   199   1     0     1     1  0.876      0.876      0.004400  
   1   200   1     0     1     1  0.880      0.880      0.004400  
   1   201   1     0     1     1  0.884      0.884      0.004400  
   1   202   1     0     1     1  0.889      0.889      0.004400  
   1   203   1     0     1     1  0.893      0.893      0.004400  
   1   204   1     0     1     1  0.898      0.898      0.004400  
   1   205   1     0     1     1  0.902      0.902      0.004400  
   1   206   1     0     1     1  0.906      0.906      0.004400  
   1   207   1     0     1     1  0.911      0.911      0.004400  
   1   208   1     0     1     1  0.915      0.915      0.004400  
   1   209   1     0     1     1  0.920      0.920      0.004400  
   1   210   1     0     1     1  0.924      0.924      0.004400  
   1   211   1     0     1     1  0.928      0.928      0.004400  
   1   212   1     0     1     1  0.933      0.933      0.004400  
   1   213   1     0     1     1  0.937      0.937      0.004400  
   1   214   1     0     1     1  0.942      0.942      0.004400  
   1   215   1     0     1     1  0.946      0.946      0.004400  
   1   216   1     0     1     1  0.950      0.950      0.004400  
   1   217   1     0     1     1  0.955      0.955      0.004400  
   1   218   1     0     1     1  0.959      0.959      0.004400  
   1   219   1     0     1     1  0.964      0.964      0.004400  
   1   220   1     0     1     1  0.968      0.968      0.004400  
   1   221   1     0     1     1  0.972      0.972      0.004400  
   1   222   1     0     1     1  0.977      0.977      0.004400  
   1   223   1     0     1     1  0.981      0.981      0.004400  
   1   224   1     0     1     1  0.986      0.986      0.004400  
   1   225   1     0     1     1  0.990      0.990      0.004400  
   1   226   1     0     1     1  0.994      0.994      0.004400  
   1   227   1     0     1     1  0.999      0.999      0.004400  
   1   228   1     0     1     1  1.00       1.00       0.001200  
                          
 THE ANALYSIS HAS COMPLETED SUCCESSFULLY
