1

   Abaqus 2022                                  Date 25-4ÔÂ-2023   Time 23:03:53
   For use by Supplied by Team-SolidSQUAD under license from Dassault Systemes or its subsidiary.

 Analysis of T_steelBrick_L10_W10_D1_Sa150_Sb450_dS12                            
 Load is applied in this step                                                    
 STEP    1     INCREMENT     1     STEP TIME    0.00    


                        S T E P       1     S T A T I C   A N A L Y S I S


          Load is applied in this step                                                    

     AUTOMATIC TIME CONTROL WITH -
          A SUGGESTED INITIAL TIME INCREMENT OF                2.670E-02
          AND A TOTAL TIME PERIOD OF                            1.00    
          THE MINIMUM TIME INCREMENT ALLOWED IS                1.000E-05
          THE MAXIMUM TIME INCREMENT ALLOWED IS                2.670E-02

     LINEAR EQUATION SOLVER TYPE         DIRECT SPARSE

 CONVERGENCE TOLERANCE PARAMETERS FOR FORCE    
     CRITERION FOR RESIDUAL FORCE     FOR A NONLINEAR PROBLEM          5.000E-03
     CRITERION FOR DISP.    CORRECTION IN A NONLINEAR PROBLEM          1.000E-02
     INITIAL VALUE OF TIME AVERAGE FORCE                               1.000E-02
     AVERAGE FORCE     IS TIME AVERAGE FORCE    
     ALTERNATE CRIT. FOR RESIDUAL FORCE     FOR A NONLINEAR PROBLEM    2.000E-02
     CRITERION FOR ZERO FORCE     RELATIVE TO TIME AVRG. FORCE         1.000E-05
     CRITERION FOR RESIDUAL FORCE     WHEN THERE IS ZERO FLUX          1.000E-05
     CRITERION FOR DISP.    CORRECTION WHEN THERE IS ZERO FLUX         1.000E-03
     CRITERION FOR RESIDUAL FORCE     FOR A LINEAR INCREMENT           1.000E-08
     FIELD CONVERSION RATIO                                             1.00    
     CRITERION FOR ZERO FORCE     REL. TO TIME AVRG. MAX. FORCE        1.000E-05
     CRITERION FOR ZERO DISP.    RELATIVE TO CHARACTERISTIC LENGTH     1.000E-08

     VOLUMETRIC STRAIN COMPATIBILITY TOLERANCE FOR HYBRID SOLIDS       1.000E-05
     AXIAL STRAIN COMPATIBILITY TOLERANCE FOR HYBRID BEAMS             1.000E-05
     TRANS. SHEAR STRAIN COMPATIBILITY TOLERANCE FOR HYBRID BEAMS      1.000E-05
     SOFT CONTACT CONSTRAINT COMPATIBILITY TOLERANCE FOR P>P0          5.000E-03
     SOFT CONTACT CONSTRAINT COMPATIBILITY TOLERANCE FOR P=0.0         0.100    
     CONTACT FORCE ERROR TOLERANCE FOR CONVERT SDI=YES                 1.00    
     DISPLACEMENT COMPATIBILITY TOLERANCE FOR DCOUP ELEMENTS           1.000E-05
     ROTATION COMPATIBILITY TOLERANCE FOR DCOUP ELEMENTS               1.000E-05

 EQUILIBRIUM WILL BE CHECKED FOR SEVERE DISCONTINUITY ITERATIONS

 TIME INCREMENTATION CONTROL PARAMETERS:
     FIRST EQUILIBRIUM ITERATION FOR CONSECUTIVE DIVERGENCE CHECK              4
     EQUILIBRIUM ITERATION AT WHICH LOG. CONVERGENCE RATE CHECK BEGINS         8
     EQUILIBRIUM ITERATION AFTER WHICH ALTERNATE RESIDUAL IS USED              9
     MAXIMUM EQUILIBRIUM ITERATIONS ALLOWED                                   16
     EQUILIBRIUM ITERATION COUNT FOR CUT-BACK IN NEXT INCREMENT               10
     MAXIMUM EQUILIB. ITERS IN TWO INCREMENTS FOR TIME INCREMENT INCREASE      4
     MAXIMUM ITERATIONS FOR SEVERE DISCONTINUITIES                            50
     MAXIMUM ATTEMPTS ALLOWED IN AN INCREMENT                                  5
     MAXIMUM DISCON. ITERS IN TWO INCREMENTS FOR TIME INCREMENT INCREASE      50
     MAXIMUM CONTACT AUGMENTATIONS FOR *SURFACE BEHAVIOR,AUGMENTED LAGRANGE   50
     CUT-BACK FACTOR AFTER DIVERGENCE                                 0.2500    
     CUT-BACK FACTOR FOR TOO SLOW CONVERGENCE                         0.5000    
     CUT-BACK FACTOR AFTER TOO MANY EQUILIBRIUM ITERATIONS            0.7500    
     CUT-BACK FACTOR AFTER TOO MANY SEVERE DISCONTINUITY ITERATIONS   0.2500    
     CUT-BACK FACTOR AFTER PROBLEMS IN ELEMENT ASSEMBLY               0.2500    
     INCREASE FACTOR AFTER TWO INCREMENTS THAT CONVERGE QUICKLY        1.500    
     MAX. TIME INCREMENT INCREASE FACTOR ALLOWED                       1.500    
     MAX. TIME INCREMENT INCREASE FACTOR ALLOWED (DYNAMICS)            1.250    
     MAX. TIME INCREMENT INCREASE FACTOR ALLOWED (DIFFUSION)           2.000    
     MINIMUM TIME INCREMENT RATIO FOR EXTRAPOLATION TO OCCUR          0.1000    
     MAX. RATIO OF TIME INCREMENT TO STABILITY LIMIT                   1.000    
     FRACTION OF STABILITY LIMIT FOR NEW TIME INCREMENT               0.9500    
     TIME INCREMENT INCREASE FACTOR BEFORE A TIME POINT                1.000    
     GLOBAL STABILIZATION CONTROL IS NOT USED

          PRINT OF INCREMENT NUMBER, TIME, ETC., EVERY    1  INCREMENTS

     THE MAXIMUM NUMBER OF INCREMENTS IN THIS STEP IS                    5000

          LARGE DISPLACEMENT THEORY WILL BE USED

          UNSYMMETRIC MATRIX STORAGE AND SOLUTION WILL BE USED

     LINEAR EXTRAPOLATION WILL BE USED

     CHARACTERISTIC ELEMENT LENGTH      2.00    

     DETAILS REGARDING ACTUAL SOLUTION WAVEFRONT REQUESTED

     DETAILED OUTPUT OF DIAGNOSTICS TO DATABASE REQUESTED

     PRINT OF INCREMENT NUMBER, TIME, ETC., TO THE MESSAGE FILE EVERY     1  INCREMENTS

     ELEMENT OPERATIONS WILL BE CARRIED OUT IN PARALLEL USING   7 THREADS ON 1 DOMAIN

     PARALLEL CONTACT TRACKING ENABLED


     COLLECTING MODEL CONSTRAINT INFORMATION FOR OVERCONSTRAINT CHECKS

     COLLECTING STEP CONSTRAINT INFORMATION FOR OVERCONSTRAINT CHECKS
 
     GPU SOLVER ACCELERATION ENABLED



  INCREMENT     1 STARTS. ATTEMPT NUMBER  1, TIME INCREMENT  2.670E-02
 
     INITIAL ELEMENT LOAD BALANCE
            DOMAIN    1     THREAD    NUMBER OF ELEMENTS
                              1            3
                              2            5
                              3            4
                              4            3
                              5            4
                              6            3
                              7            3
 
	UNSYMMETRIC DIRECT SPARSE SOLVER RUNNING ON
 	1 HOST:        1 MPI RANK  x 7 THREADS, 1 GPU PER RANK
 	NUMBER OF EQUATIONS:     72
 	NUMBER OF RHS:           1
 	NUMBER OF FLOPS:         2.893e+04

     CHECK POINT   START OF SOLVER    

     CHECK POINT  END OF SOLVER       

       ELAPSED USER TIME (SEC)      =  0.10000    
       ELAPSED SYSTEM TIME (SEC)    =  0.10000    
       ELAPSED TOTAL CPU TIME (SEC) =  0.20000    
       ELAPSED WALLCLOCK TIME (SEC) =          0

               CONVERGENCE CHECKS FOR EQUILIBRIUM ITERATION     1


 AVERAGE FORCE                       4.89       TIME AVG. FORCE        4.89    
 LARGEST RESIDUAL FORCE             6.367E-04   AT NODE         34   DOF  2
   INSTANCE: Part Instance                                                                   
 LARGEST INCREMENT OF DISP.         4.589E-04   AT NODE         32   DOF  2
   INSTANCE: Part Instance                                                                   
 LARGEST CORRECTION TO DISP.        4.589E-04   AT NODE         32   DOF  2
   INSTANCE: Part Instance                                                                   
 ESTIMATE OF DISP.    CORRECTION    1.216E-08
 FORCE     EQUILIB. ACCEPTED BASED ON SMALL RESIDUAL AND ESTIMATED CORRECTION

 ITERATION SUMMARY FOR THE INCREMENT:   1 TOTAL ITERATIONS, OF WHICH
   0 ARE SEVERE DISCONTINUITY ITERATIONS AND  1 ARE EQUILIBRIUM ITERATIONS.

 TIME INCREMENT COMPLETED  2.670E-02,  FRACTION OF STEP COMPLETED  2.670E-02
 STEP TIME COMPLETED       2.670E-02,  TOTAL TIME COMPLETED        2.670E-02


  INCREMENT     2 STARTS. ATTEMPT NUMBER  1, TIME INCREMENT  2.670E-02
 
	UNSYMMETRIC DIRECT SPARSE SOLVER RUNNING ON
 	1 HOST:        1 MPI RANK  x 7 THREADS, 1 GPU PER RANK
 	NUMBER OF EQUATIONS:     72
 	NUMBER OF RHS:           1
 	NUMBER OF FLOPS:         2.893e+04

     CHECK POINT   START OF SOLVER    

     CHECK POINT  END OF SOLVER       

       ELAPSED USER TIME (SEC)      =  0.10000    
       ELAPSED SYSTEM TIME (SEC)    =   0.0000    
       ELAPSED TOTAL CPU TIME (SEC) =  0.10000    
       ELAPSED WALLCLOCK TIME (SEC) =          0

               CONVERGENCE CHECKS FOR EQUILIBRIUM ITERATION     1


 AVERAGE FORCE                       14.7       TIME AVG. FORCE        9.79    
 LARGEST RESIDUAL FORCE             1.237E-07   AT NODE         32   DOF  2
   INSTANCE: Part Instance                                                                   
 LARGEST INCREMENT OF DISP.         4.590E-04   AT NODE         36   DOF  2
   INSTANCE: Part Instance                                                                   
 LARGEST CORRECTION TO DISP.        5.148E-08   AT NODE         36   DOF  2
   INSTANCE: Part Instance                                                                   
          THE FORCE     EQUILIBRIUM EQUATIONS HAVE CONVERGED

 ITERATION SUMMARY FOR THE INCREMENT:   1 TOTAL ITERATIONS, OF WHICH
   0 ARE SEVERE DISCONTINUITY ITERATIONS AND  1 ARE EQUILIBRIUM ITERATIONS.

 TIME INCREMENT COMPLETED  2.670E-02,  FRACTION OF STEP COMPLETED  5.340E-02
 STEP TIME COMPLETED       5.340E-02,  TOTAL TIME COMPLETED        5.340E-02


  INCREMENT     3 STARTS. ATTEMPT NUMBER  1, TIME INCREMENT  2.670E-02
 
	UNSYMMETRIC DIRECT SPARSE SOLVER RUNNING ON
 	1 HOST:        1 MPI RANK  x 7 THREADS, 1 GPU PER RANK
 	NUMBER OF EQUATIONS:     72
 	NUMBER OF RHS:           1
 	NUMBER OF FLOPS:         2.893e+04

     CHECK POINT   START OF SOLVER    

     CHECK POINT  END OF SOLVER       

       ELAPSED USER TIME (SEC)      =  0.10000    
       ELAPSED SYSTEM TIME (SEC)    =   0.0000    
       ELAPSED TOTAL CPU TIME (SEC) =  0.10000    
       ELAPSED WALLCLOCK TIME (SEC) =          1

               CONVERGENCE CHECKS FOR EQUILIBRIUM ITERATION     1


 AVERAGE FORCE                       22.0       TIME AVG. FORCE        13.9    
 LARGEST RESIDUAL FORCE             1.407E-08   AT NODE         35   DOF  2
   INSTANCE: Part Instance                                                                   
 LARGEST INCREMENT OF DISP.         4.590E-04   AT NODE         32   DOF  2
   INSTANCE: Part Instance                                                                   
 LARGEST CORRECTION TO DISP.        8.707E-09   AT NODE         36   DOF  1
   INSTANCE: Part Instance                                                                   
          THE FORCE     EQUILIBRIUM RESPONSE WAS LINEAR IN THIS INCREMENT

 ITERATION SUMMARY FOR THE INCREMENT:   1 TOTAL ITERATIONS, OF WHICH
   0 ARE SEVERE DISCONTINUITY ITERATIONS AND  1 ARE EQUILIBRIUM ITERATIONS.

 TIME INCREMENT COMPLETED  2.670E-02,  FRACTION OF STEP COMPLETED  8.010E-02
 STEP TIME COMPLETED       8.010E-02,  TOTAL TIME COMPLETED        8.010E-02


  INCREMENT     4 STARTS. ATTEMPT NUMBER  1, TIME INCREMENT  2.670E-02
 
	UNSYMMETRIC DIRECT SPARSE SOLVER RUNNING ON
 	1 HOST:        1 MPI RANK  x 7 THREADS, 1 GPU PER RANK
 	NUMBER OF EQUATIONS:     72
 	NUMBER OF RHS:           1
 	NUMBER OF FLOPS:         2.893e+04

     CHECK POINT   START OF SOLVER    

     CHECK POINT  END OF SOLVER       

       ELAPSED USER TIME (SEC)      =   0.0000    
       ELAPSED SYSTEM TIME (SEC)    =  0.10000    
       ELAPSED TOTAL CPU TIME (SEC) =  0.10000    
       ELAPSED WALLCLOCK TIME (SEC) =          0

               CONVERGENCE CHECKS FOR EQUILIBRIUM ITERATION     1


 AVERAGE FORCE                       29.4       TIME AVG. FORCE        17.7    
 LARGEST RESIDUAL FORCE             5.060E-08   AT NODE         32   DOF  2
   INSTANCE: Part Instance                                                                   
 LARGEST INCREMENT OF DISP.         4.590E-04   AT NODE         36   DOF  2
   INSTANCE: Part Instance                                                                   
 LARGEST CORRECTION TO DISP.        2.106E-08   AT NODE         36   DOF  2
   INSTANCE: Part Instance                                                                   
          THE FORCE     EQUILIBRIUM RESPONSE WAS LINEAR IN THIS INCREMENT

 ITERATION SUMMARY FOR THE INCREMENT:   1 TOTAL ITERATIONS, OF WHICH
   0 ARE SEVERE DISCONTINUITY ITERATIONS AND  1 ARE EQUILIBRIUM ITERATIONS.

 TIME INCREMENT COMPLETED  2.670E-02,  FRACTION OF STEP COMPLETED  0.107    
 STEP TIME COMPLETED       0.107    ,  TOTAL TIME COMPLETED        0.107    


  INCREMENT     5 STARTS. ATTEMPT NUMBER  1, TIME INCREMENT  2.670E-02
 
	UNSYMMETRIC DIRECT SPARSE SOLVER RUNNING ON
 	1 HOST:        1 MPI RANK  x 7 THREADS, 1 GPU PER RANK
 	NUMBER OF EQUATIONS:     72
 	NUMBER OF RHS:           1
 	NUMBER OF FLOPS:         2.893e+04

     CHECK POINT   START OF SOLVER    

     CHECK POINT  END OF SOLVER       

       ELAPSED USER TIME (SEC)      =  0.10000    
       ELAPSED SYSTEM TIME (SEC)    =   0.0000    
       ELAPSED TOTAL CPU TIME (SEC) =  0.10000    
       ELAPSED WALLCLOCK TIME (SEC) =          0

               CONVERGENCE CHECKS FOR EQUILIBRIUM ITERATION     1


 AVERAGE FORCE                       36.7       TIME AVG. FORCE        21.5    
 LARGEST RESIDUAL FORCE             5.061E-08   AT NODE         32   DOF  2
   INSTANCE: Part Instance                                                                   
 LARGEST INCREMENT OF DISP.         4.590E-04   AT NODE         31   DOF  2
   INSTANCE: Part Instance                                                                   
 LARGEST CORRECTION TO DISP.        2.107E-08   AT NODE         33   DOF  2
   INSTANCE: Part Instance                                                                   
          THE FORCE     EQUILIBRIUM RESPONSE WAS LINEAR IN THIS INCREMENT

 ITERATION SUMMARY FOR THE INCREMENT:   1 TOTAL ITERATIONS, OF WHICH
   0 ARE SEVERE DISCONTINUITY ITERATIONS AND  1 ARE EQUILIBRIUM ITERATIONS.

 TIME INCREMENT COMPLETED  2.670E-02,  FRACTION OF STEP COMPLETED  0.134    
 STEP TIME COMPLETED       0.134    ,  TOTAL TIME COMPLETED        0.134    


  INCREMENT     6 STARTS. ATTEMPT NUMBER  1, TIME INCREMENT  2.670E-02
 
	UNSYMMETRIC DIRECT SPARSE SOLVER RUNNING ON
 	1 HOST:        1 MPI RANK  x 7 THREADS, 1 GPU PER RANK
 	NUMBER OF EQUATIONS:     72
 	NUMBER OF RHS:           1
 	NUMBER OF FLOPS:         2.893e+04

     CHECK POINT   START OF SOLVER    

     CHECK POINT  END OF SOLVER       

       ELAPSED USER TIME (SEC)      =   0.0000    
       ELAPSED SYSTEM TIME (SEC)    =   0.0000    
       ELAPSED TOTAL CPU TIME (SEC) =   0.0000    
       ELAPSED WALLCLOCK TIME (SEC) =          0

               CONVERGENCE CHECKS FOR EQUILIBRIUM ITERATION     1


 AVERAGE FORCE                       44.1       TIME AVG. FORCE        25.3    
 LARGEST RESIDUAL FORCE             5.061E-08   AT NODE         32   DOF  2
   INSTANCE: Part Instance                                                                   
 LARGEST INCREMENT OF DISP.         4.591E-04   AT NODE         36   DOF  2
   INSTANCE: Part Instance                                                                   
 LARGEST CORRECTION TO DISP.        2.107E-08   AT NODE         36   DOF  2
   INSTANCE: Part Instance                                                                   
          THE FORCE     EQUILIBRIUM RESPONSE WAS LINEAR IN THIS INCREMENT

 ITERATION SUMMARY FOR THE INCREMENT:   1 TOTAL ITERATIONS, OF WHICH
   0 ARE SEVERE DISCONTINUITY ITERATIONS AND  1 ARE EQUILIBRIUM ITERATIONS.

 TIME INCREMENT COMPLETED  2.670E-02,  FRACTION OF STEP COMPLETED  0.160    
 STEP TIME COMPLETED       0.160    ,  TOTAL TIME COMPLETED        0.160    


  INCREMENT     7 STARTS. ATTEMPT NUMBER  1, TIME INCREMENT  2.670E-02
 
	UNSYMMETRIC DIRECT SPARSE SOLVER RUNNING ON
 	1 HOST:        1 MPI RANK  x 7 THREADS, 1 GPU PER RANK
 	NUMBER OF EQUATIONS:     72
 	NUMBER OF RHS:           1
 	NUMBER OF FLOPS:         2.893e+04

     CHECK POINT   START OF SOLVER    

     CHECK POINT  END OF SOLVER       

       ELAPSED USER TIME (SEC)      =  0.10000    
       ELAPSED SYSTEM TIME (SEC)    =   0.0000    
       ELAPSED TOTAL CPU TIME (SEC) =  0.10000    
       ELAPSED WALLCLOCK TIME (SEC) =          0

               CONVERGENCE CHECKS FOR EQUILIBRIUM ITERATION     1


 AVERAGE FORCE                       51.4       TIME AVG. FORCE        29.0    
 LARGEST RESIDUAL FORCE             5.061E-08   AT NODE         35   DOF  2
   INSTANCE: Part Instance                                                                   
 LARGEST INCREMENT OF DISP.         4.591E-04   AT NODE         32   DOF  2
   INSTANCE: Part Instance                                                                   
 LARGEST CORRECTION TO DISP.        2.107E-08   AT NODE         32   DOF  2
   INSTANCE: Part Instance                                                                   
          THE FORCE     EQUILIBRIUM RESPONSE WAS LINEAR IN THIS INCREMENT

 ITERATION SUMMARY FOR THE INCREMENT:   1 TOTAL ITERATIONS, OF WHICH
   0 ARE SEVERE DISCONTINUITY ITERATIONS AND  1 ARE EQUILIBRIUM ITERATIONS.

 TIME INCREMENT COMPLETED  2.670E-02,  FRACTION OF STEP COMPLETED  0.187    
 STEP TIME COMPLETED       0.187    ,  TOTAL TIME COMPLETED        0.187    


  INCREMENT     8 STARTS. ATTEMPT NUMBER  1, TIME INCREMENT  2.670E-02
 
	UNSYMMETRIC DIRECT SPARSE SOLVER RUNNING ON
 	1 HOST:        1 MPI RANK  x 7 THREADS, 1 GPU PER RANK
 	NUMBER OF EQUATIONS:     72
 	NUMBER OF RHS:           1
 	NUMBER OF FLOPS:         2.893e+04

     CHECK POINT   START OF SOLVER    

     CHECK POINT  END OF SOLVER       

       ELAPSED USER TIME (SEC)      =  0.10000    
       ELAPSED SYSTEM TIME (SEC)    =  0.10000    
       ELAPSED TOTAL CPU TIME (SEC) =  0.20000    
       ELAPSED WALLCLOCK TIME (SEC) =          0

               CONVERGENCE CHECKS FOR EQUILIBRIUM ITERATION     1


 AVERAGE FORCE                       58.7       TIME AVG. FORCE        32.7    
 LARGEST RESIDUAL FORCE             5.061E-08   AT NODE         35   DOF  2
   INSTANCE: Part Instance                                                                   
 LARGEST INCREMENT OF DISP.         4.591E-04   AT NODE         36   DOF  2
   INSTANCE: Part Instance                                                                   
 LARGEST CORRECTION TO DISP.        2.107E-08   AT NODE         36   DOF  2
   INSTANCE: Part Instance                                                                   
          THE FORCE     EQUILIBRIUM RESPONSE WAS LINEAR IN THIS INCREMENT

 ITERATION SUMMARY FOR THE INCREMENT:   1 TOTAL ITERATIONS, OF WHICH
   0 ARE SEVERE DISCONTINUITY ITERATIONS AND  1 ARE EQUILIBRIUM ITERATIONS.

 TIME INCREMENT COMPLETED  2.670E-02,  FRACTION OF STEP COMPLETED  0.214    
 STEP TIME COMPLETED       0.214    ,  TOTAL TIME COMPLETED        0.214    


  INCREMENT     9 STARTS. ATTEMPT NUMBER  1, TIME INCREMENT  2.670E-02
 
	UNSYMMETRIC DIRECT SPARSE SOLVER RUNNING ON
 	1 HOST:        1 MPI RANK  x 7 THREADS, 1 GPU PER RANK
 	NUMBER OF EQUATIONS:     72
 	NUMBER OF RHS:           1
 	NUMBER OF FLOPS:         2.893e+04

     CHECK POINT   START OF SOLVER    

     CHECK POINT  END OF SOLVER       

       ELAPSED USER TIME (SEC)      =   0.0000    
       ELAPSED SYSTEM TIME (SEC)    =   0.0000    
       ELAPSED TOTAL CPU TIME (SEC) =   0.0000    
       ELAPSED WALLCLOCK TIME (SEC) =          0

               CONVERGENCE CHECKS FOR EQUILIBRIUM ITERATION     1


 AVERAGE FORCE                       66.1       TIME AVG. FORCE        36.4    
 LARGEST RESIDUAL FORCE             5.061E-08   AT NODE         35   DOF  2
   INSTANCE: Part Instance                                                                   
 LARGEST INCREMENT OF DISP.         4.591E-04   AT NODE         36   DOF  2
   INSTANCE: Part Instance                                                                   
 LARGEST CORRECTION TO DISP.        2.107E-08   AT NODE         32   DOF  2
   INSTANCE: Part Instance                                                                   
          THE FORCE     EQUILIBRIUM RESPONSE WAS LINEAR IN THIS INCREMENT

 ITERATION SUMMARY FOR THE INCREMENT:   1 TOTAL ITERATIONS, OF WHICH
   0 ARE SEVERE DISCONTINUITY ITERATIONS AND  1 ARE EQUILIBRIUM ITERATIONS.

 TIME INCREMENT COMPLETED  2.670E-02,  FRACTION OF STEP COMPLETED  0.240    
 STEP TIME COMPLETED       0.240    ,  TOTAL TIME COMPLETED        0.240    


  INCREMENT    10 STARTS. ATTEMPT NUMBER  1, TIME INCREMENT  2.670E-02
 
	UNSYMMETRIC DIRECT SPARSE SOLVER RUNNING ON
 	1 HOST:        1 MPI RANK  x 7 THREADS, 1 GPU PER RANK
 	NUMBER OF EQUATIONS:     72
 	NUMBER OF RHS:           1
 	NUMBER OF FLOPS:         2.893e+04

     CHECK POINT   START OF SOLVER    

     CHECK POINT  END OF SOLVER       

       ELAPSED USER TIME (SEC)      =  0.20000    
       ELAPSED SYSTEM TIME (SEC)    =   0.0000    
       ELAPSED TOTAL CPU TIME (SEC) =  0.20000    
       ELAPSED WALLCLOCK TIME (SEC) =          0

               CONVERGENCE CHECKS FOR EQUILIBRIUM ITERATION     1


 AVERAGE FORCE                       73.4       TIME AVG. FORCE        40.1    
 LARGEST RESIDUAL FORCE             5.061E-08   AT NODE         34   DOF  2
   INSTANCE: Part Instance                                                                   
 LARGEST INCREMENT OF DISP.         4.591E-04   AT NODE         35   DOF  2
   INSTANCE: Part Instance                                                                   
 LARGEST CORRECTION TO DISP.        2.107E-08   AT NODE         35   DOF  2
   INSTANCE: Part Instance                                                                   
          THE FORCE     EQUILIBRIUM RESPONSE WAS LINEAR IN THIS INCREMENT

 ITERATION SUMMARY FOR THE INCREMENT:   1 TOTAL ITERATIONS, OF WHICH
   0 ARE SEVERE DISCONTINUITY ITERATIONS AND  1 ARE EQUILIBRIUM ITERATIONS.

 TIME INCREMENT COMPLETED  2.670E-02,  FRACTION OF STEP COMPLETED  0.267    
 STEP TIME COMPLETED       0.267    ,  TOTAL TIME COMPLETED        0.267    


  INCREMENT    11 STARTS. ATTEMPT NUMBER  1, TIME INCREMENT  2.670E-02
 
	UNSYMMETRIC DIRECT SPARSE SOLVER RUNNING ON
 	1 HOST:        1 MPI RANK  x 7 THREADS, 1 GPU PER RANK
 	NUMBER OF EQUATIONS:     72
 	NUMBER OF RHS:           1
 	NUMBER OF FLOPS:         2.893e+04

     CHECK POINT   START OF SOLVER    

     CHECK POINT  END OF SOLVER       

       ELAPSED USER TIME (SEC)      =  0.10000    
       ELAPSED SYSTEM TIME (SEC)    =   0.0000    
       ELAPSED TOTAL CPU TIME (SEC) =  0.10000    
       ELAPSED WALLCLOCK TIME (SEC) =          0

               CONVERGENCE CHECKS FOR EQUILIBRIUM ITERATION     1


 AVERAGE FORCE                       80.8       TIME AVG. FORCE        43.8    
 LARGEST RESIDUAL FORCE             5.061E-08   AT NODE         34   DOF  2
   INSTANCE: Part Instance                                                                   
 LARGEST INCREMENT OF DISP.         4.592E-04   AT NODE         36   DOF  2
   INSTANCE: Part Instance                                                                   
 LARGEST CORRECTION TO DISP.        2.107E-08   AT NODE         36   DOF  2
   INSTANCE: Part Instance                                                                   
          THE FORCE     EQUILIBRIUM RESPONSE WAS LINEAR IN THIS INCREMENT

 ITERATION SUMMARY FOR THE INCREMENT:   1 TOTAL ITERATIONS, OF WHICH
   0 ARE SEVERE DISCONTINUITY ITERATIONS AND  1 ARE EQUILIBRIUM ITERATIONS.

 TIME INCREMENT COMPLETED  2.670E-02,  FRACTION OF STEP COMPLETED  0.294    
 STEP TIME COMPLETED       0.294    ,  TOTAL TIME COMPLETED        0.294    


  INCREMENT    12 STARTS. ATTEMPT NUMBER  1, TIME INCREMENT  2.670E-02
 
	UNSYMMETRIC DIRECT SPARSE SOLVER RUNNING ON
 	1 HOST:        1 MPI RANK  x 7 THREADS, 1 GPU PER RANK
 	NUMBER OF EQUATIONS:     72
 	NUMBER OF RHS:           1
 	NUMBER OF FLOPS:         2.893e+04

     CHECK POINT   START OF SOLVER    

     CHECK POINT  END OF SOLVER       

       ELAPSED USER TIME (SEC)      =  0.10000    
       ELAPSED SYSTEM TIME (SEC)    =   0.0000    
       ELAPSED TOTAL CPU TIME (SEC) =  0.10000    
       ELAPSED WALLCLOCK TIME (SEC) =          0

               CONVERGENCE CHECKS FOR EQUILIBRIUM ITERATION     1


 AVERAGE FORCE                       88.1       TIME AVG. FORCE        47.5    
 LARGEST RESIDUAL FORCE             5.061E-08   AT NODE         33   DOF  2
   INSTANCE: Part Instance                                                                   
 LARGEST INCREMENT OF DISP.         4.592E-04   AT NODE         35   DOF  2
   INSTANCE: Part Instance                                                                   
 LARGEST CORRECTION TO DISP.        2.107E-08   AT NODE         33   DOF  2
   INSTANCE: Part Instance                                                                   
          THE FORCE     EQUILIBRIUM RESPONSE WAS LINEAR IN THIS INCREMENT

 ITERATION SUMMARY FOR THE INCREMENT:   1 TOTAL ITERATIONS, OF WHICH
   0 ARE SEVERE DISCONTINUITY ITERATIONS AND  1 ARE EQUILIBRIUM ITERATIONS.

 TIME INCREMENT COMPLETED  2.670E-02,  FRACTION OF STEP COMPLETED  0.320    
 STEP TIME COMPLETED       0.320    ,  TOTAL TIME COMPLETED        0.320    


  INCREMENT    13 STARTS. ATTEMPT NUMBER  1, TIME INCREMENT  2.670E-02
 
	UNSYMMETRIC DIRECT SPARSE SOLVER RUNNING ON
 	1 HOST:        1 MPI RANK  x 7 THREADS, 1 GPU PER RANK
 	NUMBER OF EQUATIONS:     72
 	NUMBER OF RHS:           1
 	NUMBER OF FLOPS:         2.893e+04

     CHECK POINT   START OF SOLVER    

     CHECK POINT  END OF SOLVER       

       ELAPSED USER TIME (SEC)      =   0.0000    
       ELAPSED SYSTEM TIME (SEC)    =   0.0000    
       ELAPSED TOTAL CPU TIME (SEC) =   0.0000    
       ELAPSED WALLCLOCK TIME (SEC) =          0

               CONVERGENCE CHECKS FOR EQUILIBRIUM ITERATION     1


 AVERAGE FORCE                       95.5       TIME AVG. FORCE        51.2    
 LARGEST RESIDUAL FORCE             5.061E-08   AT NODE         33   DOF  2
   INSTANCE: Part Instance                                                                   
 LARGEST INCREMENT OF DISP.         4.592E-04   AT NODE         33   DOF  2
   INSTANCE: Part Instance                                                                   
 LARGEST CORRECTION TO DISP.        2.107E-08   AT NODE         33   DOF  2
   INSTANCE: Part Instance                                                                   
          THE FORCE     EQUILIBRIUM RESPONSE WAS LINEAR IN THIS INCREMENT

 ITERATION SUMMARY FOR THE INCREMENT:   1 TOTAL ITERATIONS, OF WHICH
   0 ARE SEVERE DISCONTINUITY ITERATIONS AND  1 ARE EQUILIBRIUM ITERATIONS.

 TIME INCREMENT COMPLETED  2.670E-02,  FRACTION OF STEP COMPLETED  0.347    
 STEP TIME COMPLETED       0.347    ,  TOTAL TIME COMPLETED        0.347    


  INCREMENT    14 STARTS. ATTEMPT NUMBER  1, TIME INCREMENT  2.670E-02
 
	UNSYMMETRIC DIRECT SPARSE SOLVER RUNNING ON
 	1 HOST:        1 MPI RANK  x 7 THREADS, 1 GPU PER RANK
 	NUMBER OF EQUATIONS:     72
 	NUMBER OF RHS:           1
 	NUMBER OF FLOPS:         2.893e+04

     CHECK POINT   START OF SOLVER    

     CHECK POINT  END OF SOLVER       

       ELAPSED USER TIME (SEC)      =  0.10000    
       ELAPSED SYSTEM TIME (SEC)    =   0.0000    
       ELAPSED TOTAL CPU TIME (SEC) =  0.10000    
       ELAPSED WALLCLOCK TIME (SEC) =          0

               CONVERGENCE CHECKS FOR EQUILIBRIUM ITERATION     1


 AVERAGE FORCE                       103.       TIME AVG. FORCE        54.9    
 LARGEST RESIDUAL FORCE             5.061E-08   AT NODE         33   DOF  2
   INSTANCE: Part Instance                                                                   
 LARGEST INCREMENT OF DISP.         4.592E-04   AT NODE         36   DOF  2
   INSTANCE: Part Instance                                                                   
 LARGEST CORRECTION TO DISP.        2.107E-08   AT NODE         36   DOF  2
   INSTANCE: Part Instance                                                                   
          THE FORCE     EQUILIBRIUM RESPONSE WAS LINEAR IN THIS INCREMENT

 ITERATION SUMMARY FOR THE INCREMENT:   1 TOTAL ITERATIONS, OF WHICH
   0 ARE SEVERE DISCONTINUITY ITERATIONS AND  1 ARE EQUILIBRIUM ITERATIONS.

 TIME INCREMENT COMPLETED  2.670E-02,  FRACTION OF STEP COMPLETED  0.374    
 STEP TIME COMPLETED       0.374    ,  TOTAL TIME COMPLETED        0.374    


  INCREMENT    15 STARTS. ATTEMPT NUMBER  1, TIME INCREMENT  2.670E-02
 
	UNSYMMETRIC DIRECT SPARSE SOLVER RUNNING ON
 	1 HOST:        1 MPI RANK  x 7 THREADS, 1 GPU PER RANK
 	NUMBER OF EQUATIONS:     72
 	NUMBER OF RHS:           1
 	NUMBER OF FLOPS:         2.893e+04

     CHECK POINT   START OF SOLVER    

     CHECK POINT  END OF SOLVER       

       ELAPSED USER TIME (SEC)      =  0.20000    
       ELAPSED SYSTEM TIME (SEC)    =   0.0000    
       ELAPSED TOTAL CPU TIME (SEC) =  0.20000    
       ELAPSED WALLCLOCK TIME (SEC) =          0

               CONVERGENCE CHECKS FOR EQUILIBRIUM ITERATION     1


 AVERAGE FORCE                       110.       TIME AVG. FORCE        58.6    
 LARGEST RESIDUAL FORCE             5.061E-08   AT NODE         35   DOF  2
   INSTANCE: Part Instance                                                                   
 LARGEST INCREMENT OF DISP.         4.592E-04   AT NODE         32   DOF  2
   INSTANCE: Part Instance                                                                   
 LARGEST CORRECTION TO DISP.        2.108E-08   AT NODE         31   DOF  2
   INSTANCE: Part Instance                                                                   
          THE FORCE     EQUILIBRIUM RESPONSE WAS LINEAR IN THIS INCREMENT

 ITERATION SUMMARY FOR THE INCREMENT:   1 TOTAL ITERATIONS, OF WHICH
   0 ARE SEVERE DISCONTINUITY ITERATIONS AND  1 ARE EQUILIBRIUM ITERATIONS.

 TIME INCREMENT COMPLETED  2.670E-02,  FRACTION OF STEP COMPLETED  0.401    
 STEP TIME COMPLETED       0.401    ,  TOTAL TIME COMPLETED        0.401    


  INCREMENT    16 STARTS. ATTEMPT NUMBER  1, TIME INCREMENT  2.670E-02
 
	UNSYMMETRIC DIRECT SPARSE SOLVER RUNNING ON
 	1 HOST:        1 MPI RANK  x 7 THREADS, 1 GPU PER RANK
 	NUMBER OF EQUATIONS:     72
 	NUMBER OF RHS:           1
 	NUMBER OF FLOPS:         2.893e+04

     CHECK POINT   START OF SOLVER    

     CHECK POINT  END OF SOLVER       

       ELAPSED USER TIME (SEC)      =   0.0000    
       ELAPSED SYSTEM TIME (SEC)    =   0.0000    
       ELAPSED TOTAL CPU TIME (SEC) =   0.0000    
       ELAPSED WALLCLOCK TIME (SEC) =          0

               CONVERGENCE CHECKS FOR EQUILIBRIUM ITERATION     1


 AVERAGE FORCE                       117.       TIME AVG. FORCE        62.3    
 LARGEST RESIDUAL FORCE             5.061E-08   AT NODE         32   DOF  2
   INSTANCE: Part Instance                                                                   
 LARGEST INCREMENT OF DISP.         4.593E-04   AT NODE         35   DOF  2
   INSTANCE: Part Instance                                                                   
 LARGEST CORRECTION TO DISP.        2.108E-08   AT NODE         36   DOF  2
   INSTANCE: Part Instance                                                                   
          THE FORCE     EQUILIBRIUM RESPONSE WAS LINEAR IN THIS INCREMENT

 ITERATION SUMMARY FOR THE INCREMENT:   1 TOTAL ITERATIONS, OF WHICH
   0 ARE SEVERE DISCONTINUITY ITERATIONS AND  1 ARE EQUILIBRIUM ITERATIONS.

 TIME INCREMENT COMPLETED  2.670E-02,  FRACTION OF STEP COMPLETED  0.427    
 STEP TIME COMPLETED       0.427    ,  TOTAL TIME COMPLETED        0.427    


  INCREMENT    17 STARTS. ATTEMPT NUMBER  1, TIME INCREMENT  2.670E-02
 
	UNSYMMETRIC DIRECT SPARSE SOLVER RUNNING ON
 	1 HOST:        1 MPI RANK  x 7 THREADS, 1 GPU PER RANK
 	NUMBER OF EQUATIONS:     72
 	NUMBER OF RHS:           1
 	NUMBER OF FLOPS:         2.893e+04

     CHECK POINT   START OF SOLVER    

     CHECK POINT  END OF SOLVER       

       ELAPSED USER TIME (SEC)      =   0.0000    
       ELAPSED SYSTEM TIME (SEC)    =   0.0000    
       ELAPSED TOTAL CPU TIME (SEC) =   0.0000    
       ELAPSED WALLCLOCK TIME (SEC) =          0

               CONVERGENCE CHECKS FOR EQUILIBRIUM ITERATION     1


 AVERAGE FORCE                       125.       TIME AVG. FORCE        65.9    
 LARGEST RESIDUAL FORCE             5.061E-08   AT NODE         35   DOF  2
   INSTANCE: Part Instance                                                                   
 LARGEST INCREMENT OF DISP.         4.593E-04   AT NODE         36   DOF  2
   INSTANCE: Part Instance                                                                   
 LARGEST CORRECTION TO DISP.        2.108E-08   AT NODE         36   DOF  2
   INSTANCE: Part Instance                                                                   
          THE FORCE     EQUILIBRIUM RESPONSE WAS LINEAR IN THIS INCREMENT

 ITERATION SUMMARY FOR THE INCREMENT:   1 TOTAL ITERATIONS, OF WHICH
   0 ARE SEVERE DISCONTINUITY ITERATIONS AND  1 ARE EQUILIBRIUM ITERATIONS.

 TIME INCREMENT COMPLETED  2.670E-02,  FRACTION OF STEP COMPLETED  0.454    
 STEP TIME COMPLETED       0.454    ,  TOTAL TIME COMPLETED        0.454    


  INCREMENT    18 STARTS. ATTEMPT NUMBER  1, TIME INCREMENT  2.670E-02
 
	UNSYMMETRIC DIRECT SPARSE SOLVER RUNNING ON
 	1 HOST:        1 MPI RANK  x 7 THREADS, 1 GPU PER RANK
 	NUMBER OF EQUATIONS:     72
 	NUMBER OF RHS:           1
 	NUMBER OF FLOPS:         2.893e+04

     CHECK POINT   START OF SOLVER    

     CHECK POINT  END OF SOLVER       

       ELAPSED USER TIME (SEC)      =   0.0000    
       ELAPSED SYSTEM TIME (SEC)    =   0.0000    
       ELAPSED TOTAL CPU TIME (SEC) =   0.0000    
       ELAPSED WALLCLOCK TIME (SEC) =          0

               CONVERGENCE CHECKS FOR EQUILIBRIUM ITERATION     1


 AVERAGE FORCE                       132.       TIME AVG. FORCE        69.6    
 LARGEST RESIDUAL FORCE             5.061E-08   AT NODE         32   DOF  2
   INSTANCE: Part Instance                                                                   
 LARGEST INCREMENT OF DISP.         4.593E-04   AT NODE         31   DOF  2
   INSTANCE: Part Instance                                                                   
 LARGEST CORRECTION TO DISP.        2.108E-08   AT NODE         31   DOF  2
   INSTANCE: Part Instance                                                                   
          THE FORCE     EQUILIBRIUM RESPONSE WAS LINEAR IN THIS INCREMENT

 ITERATION SUMMARY FOR THE INCREMENT:   1 TOTAL ITERATIONS, OF WHICH
   0 ARE SEVERE DISCONTINUITY ITERATIONS AND  1 ARE EQUILIBRIUM ITERATIONS.

 TIME INCREMENT COMPLETED  2.670E-02,  FRACTION OF STEP COMPLETED  0.481    
 STEP TIME COMPLETED       0.481    ,  TOTAL TIME COMPLETED        0.481    


  INCREMENT    19 STARTS. ATTEMPT NUMBER  1, TIME INCREMENT  2.670E-02
 
	UNSYMMETRIC DIRECT SPARSE SOLVER RUNNING ON
 	1 HOST:        1 MPI RANK  x 7 THREADS, 1 GPU PER RANK
 	NUMBER OF EQUATIONS:     72
 	NUMBER OF RHS:           1
 	NUMBER OF FLOPS:         2.893e+04

     CHECK POINT   START OF SOLVER    

     CHECK POINT  END OF SOLVER       

       ELAPSED USER TIME (SEC)      =  0.10000    
       ELAPSED SYSTEM TIME (SEC)    =   0.0000    
       ELAPSED TOTAL CPU TIME (SEC) =  0.10000    
       ELAPSED WALLCLOCK TIME (SEC) =          0

               CONVERGENCE CHECKS FOR EQUILIBRIUM ITERATION     1


 AVERAGE FORCE                       140.       TIME AVG. FORCE        73.3    
 LARGEST RESIDUAL FORCE             5.061E-08   AT NODE         33   DOF  2
   INSTANCE: Part Instance                                                                   
 LARGEST INCREMENT OF DISP.         4.593E-04   AT NODE         32   DOF  2
   INSTANCE: Part Instance                                                                   
 LARGEST CORRECTION TO DISP.        2.108E-08   AT NODE         32   DOF  2
   INSTANCE: Part Instance                                                                   
          THE FORCE     EQUILIBRIUM RESPONSE WAS LINEAR IN THIS INCREMENT

 ITERATION SUMMARY FOR THE INCREMENT:   1 TOTAL ITERATIONS, OF WHICH
   0 ARE SEVERE DISCONTINUITY ITERATIONS AND  1 ARE EQUILIBRIUM ITERATIONS.

 TIME INCREMENT COMPLETED  2.670E-02,  FRACTION OF STEP COMPLETED  0.507    
 STEP TIME COMPLETED       0.507    ,  TOTAL TIME COMPLETED        0.507    


  INCREMENT    20 STARTS. ATTEMPT NUMBER  1, TIME INCREMENT  2.670E-02
 
	UNSYMMETRIC DIRECT SPARSE SOLVER RUNNING ON
 	1 HOST:        1 MPI RANK  x 7 THREADS, 1 GPU PER RANK
 	NUMBER OF EQUATIONS:     72
 	NUMBER OF RHS:           1
 	NUMBER OF FLOPS:         2.893e+04

     CHECK POINT   START OF SOLVER    

     CHECK POINT  END OF SOLVER       

       ELAPSED USER TIME (SEC)      =  0.10000    
       ELAPSED SYSTEM TIME (SEC)    =   0.0000    
       ELAPSED TOTAL CPU TIME (SEC) =  0.10000    
       ELAPSED WALLCLOCK TIME (SEC) =          0

               CONVERGENCE CHECKS FOR EQUILIBRIUM ITERATION     1


 AVERAGE FORCE                       147.       TIME AVG. FORCE        77.0    
 LARGEST RESIDUAL FORCE             5.061E-08   AT NODE         32   DOF  2
   INSTANCE: Part Instance                                                                   
 LARGEST INCREMENT OF DISP.         4.593E-04   AT NODE         36   DOF  2
   INSTANCE: Part Instance                                                                   
 LARGEST CORRECTION TO DISP.        2.108E-08   AT NODE         36   DOF  2
   INSTANCE: Part Instance                                                                   
          THE FORCE     EQUILIBRIUM RESPONSE WAS LINEAR IN THIS INCREMENT

 ITERATION SUMMARY FOR THE INCREMENT:   1 TOTAL ITERATIONS, OF WHICH
   0 ARE SEVERE DISCONTINUITY ITERATIONS AND  1 ARE EQUILIBRIUM ITERATIONS.

 TIME INCREMENT COMPLETED  2.670E-02,  FRACTION OF STEP COMPLETED  0.534    
 STEP TIME COMPLETED       0.534    ,  TOTAL TIME COMPLETED        0.534    


  INCREMENT    21 STARTS. ATTEMPT NUMBER  1, TIME INCREMENT  2.670E-02
 
	UNSYMMETRIC DIRECT SPARSE SOLVER RUNNING ON
 	1 HOST:        1 MPI RANK  x 7 THREADS, 1 GPU PER RANK
 	NUMBER OF EQUATIONS:     72
 	NUMBER OF RHS:           1
 	NUMBER OF FLOPS:         2.893e+04

     CHECK POINT   START OF SOLVER    

     CHECK POINT  END OF SOLVER       

       ELAPSED USER TIME (SEC)      =  0.10000    
       ELAPSED SYSTEM TIME (SEC)    =   0.0000    
       ELAPSED TOTAL CPU TIME (SEC) =  0.10000    
       ELAPSED WALLCLOCK TIME (SEC) =          0

               CONVERGENCE CHECKS FOR EQUILIBRIUM ITERATION     1


 AVERAGE FORCE                       154.       TIME AVG. FORCE        80.7    
 LARGEST RESIDUAL FORCE             5.061E-08   AT NODE         35   DOF  2
   INSTANCE: Part Instance                                                                   
 LARGEST INCREMENT OF DISP.         4.594E-04   AT NODE         32   DOF  2
   INSTANCE: Part Instance                                                                   
 LARGEST CORRECTION TO DISP.        2.108E-08   AT NODE         32   DOF  2
   INSTANCE: Part Instance                                                                   
          THE FORCE     EQUILIBRIUM RESPONSE WAS LINEAR IN THIS INCREMENT

 ITERATION SUMMARY FOR THE INCREMENT:   1 TOTAL ITERATIONS, OF WHICH
   0 ARE SEVERE DISCONTINUITY ITERATIONS AND  1 ARE EQUILIBRIUM ITERATIONS.

 TIME INCREMENT COMPLETED  2.670E-02,  FRACTION OF STEP COMPLETED  0.561    
 STEP TIME COMPLETED       0.561    ,  TOTAL TIME COMPLETED        0.561    


  INCREMENT    22 STARTS. ATTEMPT NUMBER  1, TIME INCREMENT  2.670E-02
 
	UNSYMMETRIC DIRECT SPARSE SOLVER RUNNING ON
 	1 HOST:        1 MPI RANK  x 7 THREADS, 1 GPU PER RANK
 	NUMBER OF EQUATIONS:     72
 	NUMBER OF RHS:           1
 	NUMBER OF FLOPS:         2.893e+04

     CHECK POINT   START OF SOLVER    

     CHECK POINT  END OF SOLVER       

       ELAPSED USER TIME (SEC)      =  0.20000    
       ELAPSED SYSTEM TIME (SEC)    =   0.0000    
       ELAPSED TOTAL CPU TIME (SEC) =  0.20000    
       ELAPSED WALLCLOCK TIME (SEC) =          0

               CONVERGENCE CHECKS FOR EQUILIBRIUM ITERATION     1


 AVERAGE FORCE                       162.       TIME AVG. FORCE        84.3    
 LARGEST RESIDUAL FORCE             5.061E-08   AT NODE         35   DOF  2
   INSTANCE: Part Instance                                                                   
 LARGEST INCREMENT OF DISP.         4.594E-04   AT NODE         31   DOF  2
   INSTANCE: Part Instance                                                                   
 LARGEST CORRECTION TO DISP.        2.108E-08   AT NODE         34   DOF  2
   INSTANCE: Part Instance                                                                   
          THE FORCE     EQUILIBRIUM RESPONSE WAS LINEAR IN THIS INCREMENT

 ITERATION SUMMARY FOR THE INCREMENT:   1 TOTAL ITERATIONS, OF WHICH
   0 ARE SEVERE DISCONTINUITY ITERATIONS AND  1 ARE EQUILIBRIUM ITERATIONS.

 TIME INCREMENT COMPLETED  2.670E-02,  FRACTION OF STEP COMPLETED  0.587    
 STEP TIME COMPLETED       0.587    ,  TOTAL TIME COMPLETED        0.587    


  INCREMENT    23 STARTS. ATTEMPT NUMBER  1, TIME INCREMENT  2.670E-02
 
	UNSYMMETRIC DIRECT SPARSE SOLVER RUNNING ON
 	1 HOST:        1 MPI RANK  x 7 THREADS, 1 GPU PER RANK
 	NUMBER OF EQUATIONS:     72
 	NUMBER OF RHS:           1
 	NUMBER OF FLOPS:         2.893e+04

     CHECK POINT   START OF SOLVER    

     CHECK POINT  END OF SOLVER       

       ELAPSED USER TIME (SEC)      =  0.10000    
       ELAPSED SYSTEM TIME (SEC)    =   0.0000    
       ELAPSED TOTAL CPU TIME (SEC) =  0.10000    
       ELAPSED WALLCLOCK TIME (SEC) =          0

               CONVERGENCE CHECKS FOR EQUILIBRIUM ITERATION     1


 AVERAGE FORCE                       169.       TIME AVG. FORCE        88.0    
 LARGEST RESIDUAL FORCE             5.061E-08   AT NODE         34   DOF  2
   INSTANCE: Part Instance                                                                   
 LARGEST INCREMENT OF DISP.         4.594E-04   AT NODE         36   DOF  2
   INSTANCE: Part Instance                                                                   
 LARGEST CORRECTION TO DISP.        2.108E-08   AT NODE         36   DOF  2
   INSTANCE: Part Instance                                                                   
          THE FORCE     EQUILIBRIUM RESPONSE WAS LINEAR IN THIS INCREMENT

 ITERATION SUMMARY FOR THE INCREMENT:   1 TOTAL ITERATIONS, OF WHICH
   0 ARE SEVERE DISCONTINUITY ITERATIONS AND  1 ARE EQUILIBRIUM ITERATIONS.

 TIME INCREMENT COMPLETED  2.670E-02,  FRACTION OF STEP COMPLETED  0.614    
 STEP TIME COMPLETED       0.614    ,  TOTAL TIME COMPLETED        0.614    


  INCREMENT    24 STARTS. ATTEMPT NUMBER  1, TIME INCREMENT  2.670E-02
 
	UNSYMMETRIC DIRECT SPARSE SOLVER RUNNING ON
 	1 HOST:        1 MPI RANK  x 7 THREADS, 1 GPU PER RANK
 	NUMBER OF EQUATIONS:     72
 	NUMBER OF RHS:           1
 	NUMBER OF FLOPS:         2.893e+04

     CHECK POINT   START OF SOLVER    

     CHECK POINT  END OF SOLVER       

       ELAPSED USER TIME (SEC)      =  0.10000    
       ELAPSED SYSTEM TIME (SEC)    =   0.0000    
       ELAPSED TOTAL CPU TIME (SEC) =  0.10000    
       ELAPSED WALLCLOCK TIME (SEC) =          0

               CONVERGENCE CHECKS FOR EQUILIBRIUM ITERATION     1


 AVERAGE FORCE                       176.       TIME AVG. FORCE        91.7    
 LARGEST RESIDUAL FORCE             5.061E-08   AT NODE         33   DOF  2
   INSTANCE: Part Instance                                                                   
 LARGEST INCREMENT OF DISP.         4.594E-04   AT NODE         36   DOF  2
   INSTANCE: Part Instance                                                                   
 LARGEST CORRECTION TO DISP.        2.108E-08   AT NODE         36   DOF  2
   INSTANCE: Part Instance                                                                   
          THE FORCE     EQUILIBRIUM RESPONSE WAS LINEAR IN THIS INCREMENT

 ITERATION SUMMARY FOR THE INCREMENT:   1 TOTAL ITERATIONS, OF WHICH
   0 ARE SEVERE DISCONTINUITY ITERATIONS AND  1 ARE EQUILIBRIUM ITERATIONS.

 TIME INCREMENT COMPLETED  2.670E-02,  FRACTION OF STEP COMPLETED  0.641    
 STEP TIME COMPLETED       0.641    ,  TOTAL TIME COMPLETED        0.641    


  INCREMENT    25 STARTS. ATTEMPT NUMBER  1, TIME INCREMENT  2.670E-02
 
	UNSYMMETRIC DIRECT SPARSE SOLVER RUNNING ON
 	1 HOST:        1 MPI RANK  x 7 THREADS, 1 GPU PER RANK
 	NUMBER OF EQUATIONS:     72
 	NUMBER OF RHS:           1
 	NUMBER OF FLOPS:         2.893e+04

     CHECK POINT   START OF SOLVER    

     CHECK POINT  END OF SOLVER       

       ELAPSED USER TIME (SEC)      =   0.0000    
       ELAPSED SYSTEM TIME (SEC)    =   0.0000    
       ELAPSED TOTAL CPU TIME (SEC) =   0.0000    
       ELAPSED WALLCLOCK TIME (SEC) =          0

               CONVERGENCE CHECKS FOR EQUILIBRIUM ITERATION     1


 AVERAGE FORCE                       184.       TIME AVG. FORCE        95.4    
 LARGEST RESIDUAL FORCE             5.061E-08   AT NODE         35   DOF  2
   INSTANCE: Part Instance                                                                   
 LARGEST INCREMENT OF DISP.         4.595E-04   AT NODE         31   DOF  2
   INSTANCE: Part Instance                                                                   
 LARGEST CORRECTION TO DISP.        2.109E-08   AT NODE         31   DOF  2
   INSTANCE: Part Instance                                                                   
          THE FORCE     EQUILIBRIUM RESPONSE WAS LINEAR IN THIS INCREMENT

 ITERATION SUMMARY FOR THE INCREMENT:   1 TOTAL ITERATIONS, OF WHICH
   0 ARE SEVERE DISCONTINUITY ITERATIONS AND  1 ARE EQUILIBRIUM ITERATIONS.

 TIME INCREMENT COMPLETED  2.670E-02,  FRACTION OF STEP COMPLETED  0.667    
 STEP TIME COMPLETED       0.667    ,  TOTAL TIME COMPLETED        0.667    


  INCREMENT    26 STARTS. ATTEMPT NUMBER  1, TIME INCREMENT  2.670E-02
 
	UNSYMMETRIC DIRECT SPARSE SOLVER RUNNING ON
 	1 HOST:        1 MPI RANK  x 7 THREADS, 1 GPU PER RANK
 	NUMBER OF EQUATIONS:     72
 	NUMBER OF RHS:           1
 	NUMBER OF FLOPS:         2.893e+04

     CHECK POINT   START OF SOLVER    

     CHECK POINT  END OF SOLVER       

       ELAPSED USER TIME (SEC)      =  0.10000    
       ELAPSED SYSTEM TIME (SEC)    =   0.0000    
       ELAPSED TOTAL CPU TIME (SEC) =  0.10000    
       ELAPSED WALLCLOCK TIME (SEC) =          0

               CONVERGENCE CHECKS FOR EQUILIBRIUM ITERATION     1


 AVERAGE FORCE                       191.       TIME AVG. FORCE        99.0    
 LARGEST RESIDUAL FORCE            -0.224       AT NODE         30   DOF  1
   INSTANCE: Part Instance                                                                   
 LARGEST INCREMENT OF DISP.         8.698E-04   AT NODE         36   DOF  2
   INSTANCE: Part Instance                                                                   
 LARGEST CORRECTION TO DISP.        4.103E-04   AT NODE         36   DOF  2
   INSTANCE: Part Instance                                                                   
          DISP.    CORRECTION TOO LARGE COMPARED TO DISP.    INCREMENT
 
	UNSYMMETRIC DIRECT SPARSE SOLVER RUNNING ON
 	1 HOST:        1 MPI RANK  x 7 THREADS, 1 GPU PER RANK
 	NUMBER OF EQUATIONS:     72
 	NUMBER OF RHS:           1
 	NUMBER OF FLOPS:         2.893e+04

     CHECK POINT   START OF SOLVER    

     CHECK POINT  END OF SOLVER       

       ELAPSED USER TIME (SEC)      =  0.10000    
       ELAPSED SYSTEM TIME (SEC)    =   0.0000    
       ELAPSED TOTAL CPU TIME (SEC) =  0.10000    
       ELAPSED WALLCLOCK TIME (SEC) =          1

               CONVERGENCE CHECKS FOR EQUILIBRIUM ITERATION     2


 AVERAGE FORCE                       191.       TIME AVG. FORCE        99.0    
 LARGEST RESIDUAL FORCE            -8.477E-04   AT NODE         12   DOF  1
   INSTANCE: Part Instance                                                                   
 LARGEST INCREMENT OF DISP.         8.929E-04   AT NODE         36   DOF  2
   INSTANCE: Part Instance                                                                   
 LARGEST CORRECTION TO DISP.        2.310E-05   AT NODE         31   DOF  2
   INSTANCE: Part Instance                                                                   
 ESTIMATE OF DISP.    CORRECTION    8.735E-08
 FORCE     EQUILIB. ACCEPTED BASED ON SMALL RESIDUAL AND ESTIMATED CORRECTION

 ITERATION SUMMARY FOR THE INCREMENT:   2 TOTAL ITERATIONS, OF WHICH
   0 ARE SEVERE DISCONTINUITY ITERATIONS AND  2 ARE EQUILIBRIUM ITERATIONS.

 TIME INCREMENT COMPLETED  2.670E-02,  FRACTION OF STEP COMPLETED  0.694    
 STEP TIME COMPLETED       0.694    ,  TOTAL TIME COMPLETED        0.694    


  INCREMENT    27 STARTS. ATTEMPT NUMBER  1, TIME INCREMENT  2.670E-02
 
	UNSYMMETRIC DIRECT SPARSE SOLVER RUNNING ON
 	1 HOST:        1 MPI RANK  x 7 THREADS, 1 GPU PER RANK
 	NUMBER OF EQUATIONS:     72
 	NUMBER OF RHS:           1
 	NUMBER OF FLOPS:         2.893e+04

     CHECK POINT   START OF SOLVER    

     CHECK POINT  END OF SOLVER       

       ELAPSED USER TIME (SEC)      =   0.0000    
       ELAPSED SYSTEM TIME (SEC)    =   0.0000    
       ELAPSED TOTAL CPU TIME (SEC) =   0.0000    
       ELAPSED WALLCLOCK TIME (SEC) =          0

               CONVERGENCE CHECKS FOR EQUILIBRIUM ITERATION     1


 AVERAGE FORCE                       199.       TIME AVG. FORCE        103.    
 LARGEST RESIDUAL FORCE             -1.96       AT NODE         18   DOF  1
   INSTANCE: Part Instance                                                                   
 LARGEST INCREMENT OF DISP.         2.302E-03   AT NODE         32   DOF  2
   INSTANCE: Part Instance                                                                   
 LARGEST CORRECTION TO DISP.        1.409E-03   AT NODE         32   DOF  2
   INSTANCE: Part Instance                                                                   
          FORCE     EQUILIBRIUM NOT ACHIEVED WITHIN TOLERANCE.
 
	UNSYMMETRIC DIRECT SPARSE SOLVER RUNNING ON
 	1 HOST:        1 MPI RANK  x 7 THREADS, 1 GPU PER RANK
 	NUMBER OF EQUATIONS:     72
 	NUMBER OF RHS:           1
 	NUMBER OF FLOPS:         2.893e+04

     CHECK POINT   START OF SOLVER    

     CHECK POINT  END OF SOLVER       

       ELAPSED USER TIME (SEC)      =  0.10000    
       ELAPSED SYSTEM TIME (SEC)    =   0.0000    
       ELAPSED TOTAL CPU TIME (SEC) =  0.10000    
       ELAPSED WALLCLOCK TIME (SEC) =          0

               CONVERGENCE CHECKS FOR EQUILIBRIUM ITERATION     2


 AVERAGE FORCE                       198.       TIME AVG. FORCE        103.    
 LARGEST RESIDUAL FORCE            -8.146E-02   AT NODE         18   DOF  1
   INSTANCE: Part Instance                                                                   
 LARGEST INCREMENT OF DISP.         2.600E-03   AT NODE         31   DOF  2
   INSTANCE: Part Instance                                                                   
 LARGEST CORRECTION TO DISP.        2.980E-04   AT NODE         31   DOF  2
   INSTANCE: Part Instance                                                                   
 ESTIMATE OF DISP.    CORRECTION    1.241E-05
 FORCE     EQUILIB. ACCEPTED BASED ON SMALL RESIDUAL AND ESTIMATED CORRECTION

 ITERATION SUMMARY FOR THE INCREMENT:   2 TOTAL ITERATIONS, OF WHICH
   0 ARE SEVERE DISCONTINUITY ITERATIONS AND  2 ARE EQUILIBRIUM ITERATIONS.

 TIME INCREMENT COMPLETED  2.670E-02,  FRACTION OF STEP COMPLETED  0.721    
 STEP TIME COMPLETED       0.721    ,  TOTAL TIME COMPLETED        0.721    


  INCREMENT    28 STARTS. ATTEMPT NUMBER  1, TIME INCREMENT  2.670E-02
 
	UNSYMMETRIC DIRECT SPARSE SOLVER RUNNING ON
 	1 HOST:        1 MPI RANK  x 7 THREADS, 1 GPU PER RANK
 	NUMBER OF EQUATIONS:     72
 	NUMBER OF RHS:           1
 	NUMBER OF FLOPS:         2.893e+04

     CHECK POINT   START OF SOLVER    

     CHECK POINT  END OF SOLVER       

       ELAPSED USER TIME (SEC)      =   0.0000    
       ELAPSED SYSTEM TIME (SEC)    =   0.0000    
       ELAPSED TOTAL CPU TIME (SEC) =   0.0000    
       ELAPSED WALLCLOCK TIME (SEC) =          0

               CONVERGENCE CHECKS FOR EQUILIBRIUM ITERATION     1


 AVERAGE FORCE                       206.       TIME AVG. FORCE        106.    
 LARGEST RESIDUAL FORCE            -0.831       AT NODE         12   DOF  1
   INSTANCE: Part Instance                                                                   
 LARGEST INCREMENT OF DISP.         3.787E-03   AT NODE         36   DOF  2
   INSTANCE: Part Instance                                                                   
 LARGEST CORRECTION TO DISP.        1.186E-03   AT NODE         36   DOF  2
   INSTANCE: Part Instance                                                                   
          FORCE     EQUILIBRIUM NOT ACHIEVED WITHIN TOLERANCE.
 
	UNSYMMETRIC DIRECT SPARSE SOLVER RUNNING ON
 	1 HOST:        1 MPI RANK  x 7 THREADS, 1 GPU PER RANK
 	NUMBER OF EQUATIONS:     72
 	NUMBER OF RHS:           1
 	NUMBER OF FLOPS:         2.893e+04

     CHECK POINT   START OF SOLVER    

     CHECK POINT  END OF SOLVER       

       ELAPSED USER TIME (SEC)      =   0.0000    
       ELAPSED SYSTEM TIME (SEC)    =   0.0000    
       ELAPSED TOTAL CPU TIME (SEC) =   0.0000    
       ELAPSED WALLCLOCK TIME (SEC) =          0

               CONVERGENCE CHECKS FOR EQUILIBRIUM ITERATION     2


 AVERAGE FORCE                       206.       TIME AVG. FORCE        106.    
 LARGEST RESIDUAL FORCE            -2.054E-02   AT NODE         12   DOF  1
   INSTANCE: Part Instance                                                                   
 LARGEST INCREMENT OF DISP.         3.993E-03   AT NODE         33   DOF  2
   INSTANCE: Part Instance                                                                   
 LARGEST CORRECTION TO DISP.        2.062E-04   AT NODE         33   DOF  2
   INSTANCE: Part Instance                                                                   
 ESTIMATE OF DISP.    CORRECTION    5.094E-06
 FORCE     EQUILIB. ACCEPTED BASED ON SMALL RESIDUAL AND ESTIMATED CORRECTION

 ITERATION SUMMARY FOR THE INCREMENT:   2 TOTAL ITERATIONS, OF WHICH
   0 ARE SEVERE DISCONTINUITY ITERATIONS AND  2 ARE EQUILIBRIUM ITERATIONS.

 TIME INCREMENT COMPLETED  2.670E-02,  FRACTION OF STEP COMPLETED  0.748    
 STEP TIME COMPLETED       0.748    ,  TOTAL TIME COMPLETED        0.748    


  INCREMENT    29 STARTS. ATTEMPT NUMBER  1, TIME INCREMENT  2.670E-02
 
	UNSYMMETRIC DIRECT SPARSE SOLVER RUNNING ON
 	1 HOST:        1 MPI RANK  x 7 THREADS, 1 GPU PER RANK
 	NUMBER OF EQUATIONS:     72
 	NUMBER OF RHS:           1
 	NUMBER OF FLOPS:         2.893e+04

     CHECK POINT   START OF SOLVER    

     CHECK POINT  END OF SOLVER       

       ELAPSED USER TIME (SEC)      =   0.0000    
       ELAPSED SYSTEM TIME (SEC)    =   0.0000    
       ELAPSED TOTAL CPU TIME (SEC) =   0.0000    
       ELAPSED WALLCLOCK TIME (SEC) =          0

               CONVERGENCE CHECKS FOR EQUILIBRIUM ITERATION     1


 AVERAGE FORCE                       214.       TIME AVG. FORCE        110.    
 LARGEST RESIDUAL FORCE             -2.51       AT NODE         18   DOF  1
   INSTANCE: Part Instance                                                                   
 LARGEST INCREMENT OF DISP.         7.240E-03   AT NODE         36   DOF  2
   INSTANCE: Part Instance                                                                   
 LARGEST CORRECTION TO DISP.        3.247E-03   AT NODE         36   DOF  2
   INSTANCE: Part Instance                                                                   
          FORCE     EQUILIBRIUM NOT ACHIEVED WITHIN TOLERANCE.
 
	UNSYMMETRIC DIRECT SPARSE SOLVER RUNNING ON
 	1 HOST:        1 MPI RANK  x 7 THREADS, 1 GPU PER RANK
 	NUMBER OF EQUATIONS:     72
 	NUMBER OF RHS:           1
 	NUMBER OF FLOPS:         2.893e+04

     CHECK POINT   START OF SOLVER    

     CHECK POINT  END OF SOLVER       

       ELAPSED USER TIME (SEC)      =  0.10000    
       ELAPSED SYSTEM TIME (SEC)    =   0.0000    
       ELAPSED TOTAL CPU TIME (SEC) =  0.10000    
       ELAPSED WALLCLOCK TIME (SEC) =          0

               CONVERGENCE CHECKS FOR EQUILIBRIUM ITERATION     2


 AVERAGE FORCE                       213.       TIME AVG. FORCE        110.    
 LARGEST RESIDUAL FORCE            -0.212       AT NODE         30   DOF  1
   INSTANCE: Part Instance                                                                   
 LARGEST INCREMENT OF DISP.         8.497E-03   AT NODE         31   DOF  2
   INSTANCE: Part Instance                                                                   
 LARGEST CORRECTION TO DISP.        1.257E-03   AT NODE         31   DOF  2
   INSTANCE: Part Instance                                                                   
          DISP.    CORRECTION TOO LARGE COMPARED TO DISP.    INCREMENT
 
	UNSYMMETRIC DIRECT SPARSE SOLVER RUNNING ON
 	1 HOST:        1 MPI RANK  x 7 THREADS, 1 GPU PER RANK
 	NUMBER OF EQUATIONS:     72
 	NUMBER OF RHS:           1
 	NUMBER OF FLOPS:         2.893e+04

     CHECK POINT   START OF SOLVER    

     CHECK POINT  END OF SOLVER       

       ELAPSED USER TIME (SEC)      =  0.10000    
       ELAPSED SYSTEM TIME (SEC)    =   0.0000    
       ELAPSED TOTAL CPU TIME (SEC) =  0.10000    
       ELAPSED WALLCLOCK TIME (SEC) =          0

               CONVERGENCE CHECKS FOR EQUILIBRIUM ITERATION     3


 AVERAGE FORCE                       213.       TIME AVG. FORCE        110.    
 LARGEST RESIDUAL FORCE            -1.288E-03   AT NODE         18   DOF  1
   INSTANCE: Part Instance                                                                   
 LARGEST INCREMENT OF DISP.         8.604E-03   AT NODE         31   DOF  2
   INSTANCE: Part Instance                                                                   
 LARGEST CORRECTION TO DISP.        1.068E-04   AT NODE         36   DOF  2
   INSTANCE: Part Instance                                                                   
 ESTIMATE OF DISP.    CORRECTION    6.500E-07
 FORCE     EQUILIB. ACCEPTED BASED ON SMALL RESIDUAL AND ESTIMATED CORRECTION

 ITERATION SUMMARY FOR THE INCREMENT:   3 TOTAL ITERATIONS, OF WHICH
   0 ARE SEVERE DISCONTINUITY ITERATIONS AND  3 ARE EQUILIBRIUM ITERATIONS.

 TIME INCREMENT COMPLETED  2.670E-02,  FRACTION OF STEP COMPLETED  0.774    
 STEP TIME COMPLETED       0.774    ,  TOTAL TIME COMPLETED        0.774    


  INCREMENT    30 STARTS. ATTEMPT NUMBER  1, TIME INCREMENT  2.670E-02
 
	UNSYMMETRIC DIRECT SPARSE SOLVER RUNNING ON
 	1 HOST:        1 MPI RANK  x 7 THREADS, 1 GPU PER RANK
 	NUMBER OF EQUATIONS:     72
 	NUMBER OF RHS:           1
 	NUMBER OF FLOPS:         2.893e+04

     CHECK POINT   START OF SOLVER    

     CHECK POINT  END OF SOLVER       

       ELAPSED USER TIME (SEC)      =  0.10000    
       ELAPSED SYSTEM TIME (SEC)    =   0.0000    
       ELAPSED TOTAL CPU TIME (SEC) =  0.10000    
       ELAPSED WALLCLOCK TIME (SEC) =          0

               CONVERGENCE CHECKS FOR EQUILIBRIUM ITERATION     1


 AVERAGE FORCE                       221.       TIME AVG. FORCE        114.    
 LARGEST RESIDUAL FORCE             -4.14       AT NODE         18   DOF  1
   INSTANCE: Part Instance                                                                   
 LARGEST INCREMENT OF DISP.         2.027E-02   AT NODE         31   DOF  2
   INSTANCE: Part Instance                                                                   
 LARGEST CORRECTION TO DISP.        1.167E-02   AT NODE         31   DOF  2
   INSTANCE: Part Instance                                                                   
          FORCE     EQUILIBRIUM NOT ACHIEVED WITHIN TOLERANCE.
 
	UNSYMMETRIC DIRECT SPARSE SOLVER RUNNING ON
 	1 HOST:        1 MPI RANK  x 7 THREADS, 1 GPU PER RANK
 	NUMBER OF EQUATIONS:     72
 	NUMBER OF RHS:           1
 	NUMBER OF FLOPS:         2.893e+04

     CHECK POINT   START OF SOLVER    

     CHECK POINT  END OF SOLVER       

       ELAPSED USER TIME (SEC)      =  0.10000    
       ELAPSED SYSTEM TIME (SEC)    =   0.0000    
       ELAPSED TOTAL CPU TIME (SEC) =  0.10000    
       ELAPSED WALLCLOCK TIME (SEC) =          0

               CONVERGENCE CHECKS FOR EQUILIBRIUM ITERATION     2


 AVERAGE FORCE                       220.       TIME AVG. FORCE        114.    
 LARGEST RESIDUAL FORCE            -5.592E-02   AT NODE         30   DOF  1
   INSTANCE: Part Instance                                                                   
 LARGEST INCREMENT OF DISP.         2.293E-02   AT NODE         36   DOF  2
   INSTANCE: Part Instance                                                                   
 LARGEST CORRECTION TO DISP.       -2.720E-03   AT NODE         36   DOF  1
   INSTANCE: Part Instance                                                                   
 ESTIMATE OF DISP.    CORRECTION   -3.675E-05
 FORCE     EQUILIB. ACCEPTED BASED ON SMALL RESIDUAL AND ESTIMATED CORRECTION

 ITERATION SUMMARY FOR THE INCREMENT:   2 TOTAL ITERATIONS, OF WHICH
   0 ARE SEVERE DISCONTINUITY ITERATIONS AND  2 ARE EQUILIBRIUM ITERATIONS.

 TIME INCREMENT COMPLETED  2.670E-02,  FRACTION OF STEP COMPLETED  0.801    
 STEP TIME COMPLETED       0.801    ,  TOTAL TIME COMPLETED        0.801    


  INCREMENT    31 STARTS. ATTEMPT NUMBER  1, TIME INCREMENT  2.670E-02
 
	UNSYMMETRIC DIRECT SPARSE SOLVER RUNNING ON
 	1 HOST:        1 MPI RANK  x 7 THREADS, 1 GPU PER RANK
 	NUMBER OF EQUATIONS:     72
 	NUMBER OF RHS:           1
 	NUMBER OF FLOPS:         2.893e+04

     CHECK POINT   START OF SOLVER    

     CHECK POINT  END OF SOLVER       

       ELAPSED USER TIME (SEC)      =   0.0000    
       ELAPSED SYSTEM TIME (SEC)    =   0.0000    
       ELAPSED TOTAL CPU TIME (SEC) =   0.0000    
       ELAPSED WALLCLOCK TIME (SEC) =          0

               CONVERGENCE CHECKS FOR EQUILIBRIUM ITERATION     1


 AVERAGE FORCE                       227.       TIME AVG. FORCE        117.    
 LARGEST RESIDUAL FORCE             3.316E-02   AT NODE         34   DOF  2
   INSTANCE: Part Instance                                                                   
 LARGEST INCREMENT OF DISP.         3.071E-02   AT NODE         33   DOF  2
   INSTANCE: Part Instance                                                                   
 LARGEST CORRECTION TO DISP.       -7.866E-03   AT NODE         18   DOF  1
   INSTANCE: Part Instance                                                                   
 ESTIMATE OF DISP.    CORRECTION    2.871E-05
 FORCE     EQUILIB. ACCEPTED BASED ON SMALL RESIDUAL AND ESTIMATED CORRECTION

 ITERATION SUMMARY FOR THE INCREMENT:   1 TOTAL ITERATIONS, OF WHICH
   0 ARE SEVERE DISCONTINUITY ITERATIONS AND  1 ARE EQUILIBRIUM ITERATIONS.

 TIME INCREMENT COMPLETED  2.670E-02,  FRACTION OF STEP COMPLETED  0.828    
 STEP TIME COMPLETED       0.828    ,  TOTAL TIME COMPLETED        0.828    


  INCREMENT    32 STARTS. ATTEMPT NUMBER  1, TIME INCREMENT  2.670E-02
 
	UNSYMMETRIC DIRECT SPARSE SOLVER RUNNING ON
 	1 HOST:        1 MPI RANK  x 7 THREADS, 1 GPU PER RANK
 	NUMBER OF EQUATIONS:     72
 	NUMBER OF RHS:           1
 	NUMBER OF FLOPS:         2.893e+04

     CHECK POINT   START OF SOLVER    

     CHECK POINT  END OF SOLVER       

       ELAPSED USER TIME (SEC)      =  0.10000    
       ELAPSED SYSTEM TIME (SEC)    =   0.0000    
       ELAPSED TOTAL CPU TIME (SEC) =  0.10000    
       ELAPSED WALLCLOCK TIME (SEC) =          0

               CONVERGENCE CHECKS FOR EQUILIBRIUM ITERATION     1


 AVERAGE FORCE                       234.       TIME AVG. FORCE        121.    
 LARGEST RESIDUAL FORCE             6.393E-03   AT NODE         35   DOF  2
   INSTANCE: Part Instance                                                                   
 LARGEST INCREMENT OF DISP.         3.165E-02   AT NODE         36   DOF  2
   INSTANCE: Part Instance                                                                   
 LARGEST CORRECTION TO DISP.        9.439E-04   AT NODE         36   DOF  2
   INSTANCE: Part Instance                                                                   
 ESTIMATE OF DISP.    CORRECTION    2.087E-06
 FORCE     EQUILIB. ACCEPTED BASED ON SMALL RESIDUAL AND ESTIMATED CORRECTION

 ITERATION SUMMARY FOR THE INCREMENT:   1 TOTAL ITERATIONS, OF WHICH
   0 ARE SEVERE DISCONTINUITY ITERATIONS AND  1 ARE EQUILIBRIUM ITERATIONS.

 TIME INCREMENT COMPLETED  2.670E-02,  FRACTION OF STEP COMPLETED  0.854    
 STEP TIME COMPLETED       0.854    ,  TOTAL TIME COMPLETED        0.854    


  INCREMENT    33 STARTS. ATTEMPT NUMBER  1, TIME INCREMENT  2.670E-02
 
	UNSYMMETRIC DIRECT SPARSE SOLVER RUNNING ON
 	1 HOST:        1 MPI RANK  x 7 THREADS, 1 GPU PER RANK
 	NUMBER OF EQUATIONS:     72
 	NUMBER OF RHS:           1
 	NUMBER OF FLOPS:         2.893e+04

     CHECK POINT   START OF SOLVER    

     CHECK POINT  END OF SOLVER       

       ELAPSED USER TIME (SEC)      =  0.10000    
       ELAPSED SYSTEM TIME (SEC)    =   0.0000    
       ELAPSED TOTAL CPU TIME (SEC) =  0.10000    
       ELAPSED WALLCLOCK TIME (SEC) =          0

               CONVERGENCE CHECKS FOR EQUILIBRIUM ITERATION     1


 AVERAGE FORCE                       241.       TIME AVG. FORCE        125.    
 LARGEST RESIDUAL FORCE            -2.593E-04   AT NODE         24   DOF  1
   INSTANCE: Part Instance                                                                   
 LARGEST INCREMENT OF DISP.         3.172E-02   AT NODE         36   DOF  2
   INSTANCE: Part Instance                                                                   
 LARGEST CORRECTION TO DISP.        1.001E-04   AT NODE         36   DOF  1
   INSTANCE: Part Instance                                                                   
          THE FORCE     EQUILIBRIUM EQUATIONS HAVE CONVERGED

 ITERATION SUMMARY FOR THE INCREMENT:   1 TOTAL ITERATIONS, OF WHICH
   0 ARE SEVERE DISCONTINUITY ITERATIONS AND  1 ARE EQUILIBRIUM ITERATIONS.

 TIME INCREMENT COMPLETED  2.670E-02,  FRACTION OF STEP COMPLETED  0.881    
 STEP TIME COMPLETED       0.881    ,  TOTAL TIME COMPLETED        0.881    


  INCREMENT    34 STARTS. ATTEMPT NUMBER  1, TIME INCREMENT  2.670E-02
 
	UNSYMMETRIC DIRECT SPARSE SOLVER RUNNING ON
 	1 HOST:        1 MPI RANK  x 7 THREADS, 1 GPU PER RANK
 	NUMBER OF EQUATIONS:     72
 	NUMBER OF RHS:           1
 	NUMBER OF FLOPS:         2.893e+04

     CHECK POINT   START OF SOLVER    

     CHECK POINT  END OF SOLVER       

       ELAPSED USER TIME (SEC)      =  0.10000    
       ELAPSED SYSTEM TIME (SEC)    =   0.0000    
       ELAPSED TOTAL CPU TIME (SEC) =  0.10000    
       ELAPSED WALLCLOCK TIME (SEC) =          0

               CONVERGENCE CHECKS FOR EQUILIBRIUM ITERATION     1


 AVERAGE FORCE                       248.       TIME AVG. FORCE        128.    
 LARGEST RESIDUAL FORCE             4.241E-04   AT NODE         35   DOF  2
   INSTANCE: Part Instance                                                                   
 LARGEST INCREMENT OF DISP.         3.182E-02   AT NODE         36   DOF  2
   INSTANCE: Part Instance                                                                   
 LARGEST CORRECTION TO DISP.        9.869E-05   AT NODE         31   DOF  2
   INSTANCE: Part Instance                                                                   
          THE FORCE     EQUILIBRIUM EQUATIONS HAVE CONVERGED

 ITERATION SUMMARY FOR THE INCREMENT:   1 TOTAL ITERATIONS, OF WHICH
   0 ARE SEVERE DISCONTINUITY ITERATIONS AND  1 ARE EQUILIBRIUM ITERATIONS.

 TIME INCREMENT COMPLETED  2.670E-02,  FRACTION OF STEP COMPLETED  0.908    
 STEP TIME COMPLETED       0.908    ,  TOTAL TIME COMPLETED        0.908    


  INCREMENT    35 STARTS. ATTEMPT NUMBER  1, TIME INCREMENT  2.670E-02
 
	UNSYMMETRIC DIRECT SPARSE SOLVER RUNNING ON
 	1 HOST:        1 MPI RANK  x 7 THREADS, 1 GPU PER RANK
 	NUMBER OF EQUATIONS:     72
 	NUMBER OF RHS:           1
 	NUMBER OF FLOPS:         2.893e+04

     CHECK POINT   START OF SOLVER    

     CHECK POINT  END OF SOLVER       

       ELAPSED USER TIME (SEC)      =  0.10000    
       ELAPSED SYSTEM TIME (SEC)    =   0.0000    
       ELAPSED TOTAL CPU TIME (SEC) =  0.10000    
       ELAPSED WALLCLOCK TIME (SEC) =          0

               CONVERGENCE CHECKS FOR EQUILIBRIUM ITERATION     1


 AVERAGE FORCE                       255.       TIME AVG. FORCE        132.    
 LARGEST RESIDUAL FORCE             4.380E-04   AT NODE         34   DOF  2
   INSTANCE: Part Instance                                                                   
 LARGEST INCREMENT OF DISP.         3.192E-02   AT NODE         31   DOF  2
   INSTANCE: Part Instance                                                                   
 LARGEST CORRECTION TO DISP.        1.008E-04   AT NODE         31   DOF  2
   INSTANCE: Part Instance                                                                   
          THE FORCE     EQUILIBRIUM EQUATIONS HAVE CONVERGED

 ITERATION SUMMARY FOR THE INCREMENT:   1 TOTAL ITERATIONS, OF WHICH
   0 ARE SEVERE DISCONTINUITY ITERATIONS AND  1 ARE EQUILIBRIUM ITERATIONS.

 TIME INCREMENT COMPLETED  2.670E-02,  FRACTION OF STEP COMPLETED  0.934    
 STEP TIME COMPLETED       0.934    ,  TOTAL TIME COMPLETED        0.934    


  INCREMENT    36 STARTS. ATTEMPT NUMBER  1, TIME INCREMENT  2.670E-02
 
	UNSYMMETRIC DIRECT SPARSE SOLVER RUNNING ON
 	1 HOST:        1 MPI RANK  x 7 THREADS, 1 GPU PER RANK
 	NUMBER OF EQUATIONS:     72
 	NUMBER OF RHS:           1
 	NUMBER OF FLOPS:         2.893e+04

     CHECK POINT   START OF SOLVER    

     CHECK POINT  END OF SOLVER       

       ELAPSED USER TIME (SEC)      =  0.10000    
       ELAPSED SYSTEM TIME (SEC)    =   0.0000    
       ELAPSED TOTAL CPU TIME (SEC) =  0.10000    
       ELAPSED WALLCLOCK TIME (SEC) =          0

               CONVERGENCE CHECKS FOR EQUILIBRIUM ITERATION     1


 AVERAGE FORCE                       262.       TIME AVG. FORCE        135.    
 LARGEST RESIDUAL FORCE            -2.734E-03   AT NODE         35   DOF  2
   INSTANCE: Part Instance                                                                   
 LARGEST INCREMENT OF DISP.         3.152E-02   AT NODE         36   DOF  2
   INSTANCE: Part Instance                                                                   
 LARGEST CORRECTION TO DISP.        5.694E-04   AT NODE          6   DOF  1
   INSTANCE: Part Instance                                                                   
 ESTIMATE OF DISP.    CORRECTION   -2.339E-07
 FORCE     EQUILIB. ACCEPTED BASED ON SMALL RESIDUAL AND ESTIMATED CORRECTION

 ITERATION SUMMARY FOR THE INCREMENT:   1 TOTAL ITERATIONS, OF WHICH
   0 ARE SEVERE DISCONTINUITY ITERATIONS AND  1 ARE EQUILIBRIUM ITERATIONS.

 TIME INCREMENT COMPLETED  2.670E-02,  FRACTION OF STEP COMPLETED  0.961    
 STEP TIME COMPLETED       0.961    ,  TOTAL TIME COMPLETED        0.961    


  INCREMENT    37 STARTS. ATTEMPT NUMBER  1, TIME INCREMENT  2.670E-02
 
	UNSYMMETRIC DIRECT SPARSE SOLVER RUNNING ON
 	1 HOST:        1 MPI RANK  x 7 THREADS, 1 GPU PER RANK
 	NUMBER OF EQUATIONS:     72
 	NUMBER OF RHS:           1
 	NUMBER OF FLOPS:         2.893e+04

     CHECK POINT   START OF SOLVER    

     CHECK POINT  END OF SOLVER       

       ELAPSED USER TIME (SEC)      =  0.10000    
       ELAPSED SYSTEM TIME (SEC)    =   0.0000    
       ELAPSED TOTAL CPU TIME (SEC) =  0.10000    
       ELAPSED WALLCLOCK TIME (SEC) =          0

               CONVERGENCE CHECKS FOR EQUILIBRIUM ITERATION     1


 AVERAGE FORCE                       269.       TIME AVG. FORCE        139.    
 LARGEST RESIDUAL FORCE            -2.431E-03   AT NODE         34   DOF  2
   INSTANCE: Part Instance                                                                   
 LARGEST INCREMENT OF DISP.         3.118E-02   AT NODE         36   DOF  2
   INSTANCE: Part Instance                                                                   
 LARGEST CORRECTION TO DISP.        5.042E-04   AT NODE         12   DOF  1
   INSTANCE: Part Instance                                                                   
 ESTIMATE OF DISP.    CORRECTION   -1.894E-07
 FORCE     EQUILIB. ACCEPTED BASED ON SMALL RESIDUAL AND ESTIMATED CORRECTION

 ITERATION SUMMARY FOR THE INCREMENT:   1 TOTAL ITERATIONS, OF WHICH
   0 ARE SEVERE DISCONTINUITY ITERATIONS AND  1 ARE EQUILIBRIUM ITERATIONS.

 TIME INCREMENT COMPLETED  2.670E-02,  FRACTION OF STEP COMPLETED  0.988    
 STEP TIME COMPLETED       0.988    ,  TOTAL TIME COMPLETED        0.988    


  INCREMENT    38 STARTS. ATTEMPT NUMBER  1, TIME INCREMENT  1.210E-02
 
	UNSYMMETRIC DIRECT SPARSE SOLVER RUNNING ON
 	1 HOST:        1 MPI RANK  x 7 THREADS, 1 GPU PER RANK
 	NUMBER OF EQUATIONS:     72
 	NUMBER OF RHS:           1
 	NUMBER OF FLOPS:         2.893e+04

     CHECK POINT   START OF SOLVER    

     CHECK POINT  END OF SOLVER       

       ELAPSED USER TIME (SEC)      =  0.10000    
       ELAPSED SYSTEM TIME (SEC)    =   0.0000    
       ELAPSED TOTAL CPU TIME (SEC) =  0.10000    
       ELAPSED WALLCLOCK TIME (SEC) =          0

               CONVERGENCE CHECKS FOR EQUILIBRIUM ITERATION     1


 AVERAGE FORCE                       272.       TIME AVG. FORCE        143.    
 LARGEST RESIDUAL FORCE             1.011E-04   AT NODE         35   DOF  2
   INSTANCE: Part Instance                                                                   
 LARGEST INCREMENT OF DISP.         1.416E-02   AT NODE         36   DOF  2
   INSTANCE: Part Instance                                                                   
 LARGEST CORRECTION TO DISP.        3.013E-05   AT NODE          6   DOF  1
   INSTANCE: Part Instance                                                                   
          THE FORCE     EQUILIBRIUM EQUATIONS HAVE CONVERGED

 ITERATION SUMMARY FOR THE INCREMENT:   1 TOTAL ITERATIONS, OF WHICH
   0 ARE SEVERE DISCONTINUITY ITERATIONS AND  1 ARE EQUILIBRIUM ITERATIONS.

 TIME INCREMENT COMPLETED  1.210E-02,  FRACTION OF STEP COMPLETED   1.00    
 STEP TIME COMPLETED        1.00    ,  TOTAL TIME COMPLETED         1.00    


          THE ANALYSIS HAS BEEN COMPLETED



     ANALYSIS SUMMARY:
     TOTAL OF         38  INCREMENTS
                       0  CUTBACKS IN AUTOMATIC INCREMENTATION
                      44  ITERATIONS INCLUDING CONTACT ITERATIONS IF PRESENT
                      44  PASSES THROUGH THE EQUATION SOLVER OF WHICH 
                      44  INVOLVE MATRIX DECOMPOSITION, INCLUDING
                       0  DECOMPOSITION(S) OF THE MASS MATRIX
                       1  REORDERING OF EQUATIONS TO MINIMIZE WAVEFRONT
                       0  ADDITIONAL RESIDUAL EVALUATIONS FOR LINE SEARCHES
                       0  ADDITIONAL OPERATOR EVALUATIONS FOR LINE SEARCHES
                       1  WARNING MESSAGES DURING USER INPUT PROCESSING
                       0  WARNING MESSAGES DURING ANALYSIS
                       0  ANALYSIS WARNINGS ARE NUMERICAL PROBLEM MESSAGES
                       0  ANALYSIS WARNINGS ARE NEGATIVE EIGENVALUE MESSAGES
                       0  ERROR MESSAGES



     JOB TIME SUMMARY
       USER TIME (SEC)      =   4.8000    
       SYSTEM TIME (SEC)    =   2.4000    
       TOTAL CPU TIME (SEC) =   7.2000    
       WALLCLOCK TIME (SEC) =          5
