1

   Abaqus 2022                                  Date 25-4ÔÂ-2023   Time 23:14:32
   For use by Supplied by Team-SolidSQUAD under license from Dassault Systemes or its subsidiary.

 Analysis of T_steelBrick_L10_W10_D1_Sa375_Sb450_dS4                             
 Load is applied in this step                                                    
 STEP    1     INCREMENT     1     STEP TIME    0.00    


                        S T E P       1     S T A T I C   A N A L Y S I S


          Load is applied in this step                                                    

     AUTOMATIC TIME CONTROL WITH -
          A SUGGESTED INITIAL TIME INCREMENT OF                8.900E-03
          AND A TOTAL TIME PERIOD OF                            1.00    
          THE MINIMUM TIME INCREMENT ALLOWED IS                1.000E-05
          THE MAXIMUM TIME INCREMENT ALLOWED IS                8.900E-03

     LINEAR EQUATION SOLVER TYPE         DIRECT SPARSE

 CONVERGENCE TOLERANCE PARAMETERS FOR FORCE    
     CRITERION FOR RESIDUAL FORCE     FOR A NONLINEAR PROBLEM          5.000E-03
     CRITERION FOR DISP.    CORRECTION IN A NONLINEAR PROBLEM          1.000E-02
     INITIAL VALUE OF TIME AVERAGE FORCE                               1.000E-02
     AVERAGE FORCE     IS TIME AVERAGE FORCE    
     ALTERNATE CRIT. FOR RESIDUAL FORCE     FOR A NONLINEAR PROBLEM    2.000E-02
     CRITERION FOR ZERO FORCE     RELATIVE TO TIME AVRG. FORCE         1.000E-05
     CRITERION FOR RESIDUAL FORCE     WHEN THERE IS ZERO FLUX          1.000E-05
     CRITERION FOR DISP.    CORRECTION WHEN THERE IS ZERO FLUX         1.000E-03
     CRITERION FOR RESIDUAL FORCE     FOR A LINEAR INCREMENT           1.000E-08
     FIELD CONVERSION RATIO                                             1.00    
     CRITERION FOR ZERO FORCE     REL. TO TIME AVRG. MAX. FORCE        1.000E-05
     CRITERION FOR ZERO DISP.    RELATIVE TO CHARACTERISTIC LENGTH     1.000E-08

     VOLUMETRIC STRAIN COMPATIBILITY TOLERANCE FOR HYBRID SOLIDS       1.000E-05
     AXIAL STRAIN COMPATIBILITY TOLERANCE FOR HYBRID BEAMS             1.000E-05
     TRANS. SHEAR STRAIN COMPATIBILITY TOLERANCE FOR HYBRID BEAMS      1.000E-05
     SOFT CONTACT CONSTRAINT COMPATIBILITY TOLERANCE FOR P>P0          5.000E-03
     SOFT CONTACT CONSTRAINT COMPATIBILITY TOLERANCE FOR P=0.0         0.100    
     CONTACT FORCE ERROR TOLERANCE FOR CONVERT SDI=YES                 1.00    
     DISPLACEMENT COMPATIBILITY TOLERANCE FOR DCOUP ELEMENTS           1.000E-05
     ROTATION COMPATIBILITY TOLERANCE FOR DCOUP ELEMENTS               1.000E-05

 EQUILIBRIUM WILL BE CHECKED FOR SEVERE DISCONTINUITY ITERATIONS

 TIME INCREMENTATION CONTROL PARAMETERS:
     FIRST EQUILIBRIUM ITERATION FOR CONSECUTIVE DIVERGENCE CHECK              4
     EQUILIBRIUM ITERATION AT WHICH LOG. CONVERGENCE RATE CHECK BEGINS         8
     EQUILIBRIUM ITERATION AFTER WHICH ALTERNATE RESIDUAL IS USED              9
     MAXIMUM EQUILIBRIUM ITERATIONS ALLOWED                                   16
     EQUILIBRIUM ITERATION COUNT FOR CUT-BACK IN NEXT INCREMENT               10
     MAXIMUM EQUILIB. ITERS IN TWO INCREMENTS FOR TIME INCREMENT INCREASE      4
     MAXIMUM ITERATIONS FOR SEVERE DISCONTINUITIES                            50
     MAXIMUM ATTEMPTS ALLOWED IN AN INCREMENT                                  5
     MAXIMUM DISCON. ITERS IN TWO INCREMENTS FOR TIME INCREMENT INCREASE      50
     MAXIMUM CONTACT AUGMENTATIONS FOR *SURFACE BEHAVIOR,AUGMENTED LAGRANGE   50
     CUT-BACK FACTOR AFTER DIVERGENCE                                 0.2500    
     CUT-BACK FACTOR FOR TOO SLOW CONVERGENCE                         0.5000    
     CUT-BACK FACTOR AFTER TOO MANY EQUILIBRIUM ITERATIONS            0.7500    
     CUT-BACK FACTOR AFTER TOO MANY SEVERE DISCONTINUITY ITERATIONS   0.2500    
     CUT-BACK FACTOR AFTER PROBLEMS IN ELEMENT ASSEMBLY               0.2500    
     INCREASE FACTOR AFTER TWO INCREMENTS THAT CONVERGE QUICKLY        1.500    
     MAX. TIME INCREMENT INCREASE FACTOR ALLOWED                       1.500    
     MAX. TIME INCREMENT INCREASE FACTOR ALLOWED (DYNAMICS)            1.250    
     MAX. TIME INCREMENT INCREASE FACTOR ALLOWED (DIFFUSION)           2.000    
     MINIMUM TIME INCREMENT RATIO FOR EXTRAPOLATION TO OCCUR          0.1000    
     MAX. RATIO OF TIME INCREMENT TO STABILITY LIMIT                   1.000    
     FRACTION OF STABILITY LIMIT FOR NEW TIME INCREMENT               0.9500    
     TIME INCREMENT INCREASE FACTOR BEFORE A TIME POINT                1.000    
     GLOBAL STABILIZATION CONTROL IS NOT USED

          PRINT OF INCREMENT NUMBER, TIME, ETC., EVERY    1  INCREMENTS

     THE MAXIMUM NUMBER OF INCREMENTS IN THIS STEP IS                    5000

          LARGE DISPLACEMENT THEORY WILL BE USED

          UNSYMMETRIC MATRIX STORAGE AND SOLUTION WILL BE USED

     LINEAR EXTRAPOLATION WILL BE USED

     CHARACTERISTIC ELEMENT LENGTH      2.00    

     DETAILS REGARDING ACTUAL SOLUTION WAVEFRONT REQUESTED

     DETAILED OUTPUT OF DIAGNOSTICS TO DATABASE REQUESTED

     PRINT OF INCREMENT NUMBER, TIME, ETC., TO THE MESSAGE FILE EVERY     1  INCREMENTS

     ELEMENT OPERATIONS WILL BE CARRIED OUT IN PARALLEL USING   7 THREADS ON 1 DOMAIN

     PARALLEL CONTACT TRACKING ENABLED


     COLLECTING MODEL CONSTRAINT INFORMATION FOR OVERCONSTRAINT CHECKS

     COLLECTING STEP CONSTRAINT INFORMATION FOR OVERCONSTRAINT CHECKS
 
     GPU SOLVER ACCELERATION ENABLED



  INCREMENT     1 STARTS. ATTEMPT NUMBER  1, TIME INCREMENT  8.900E-03
 
     INITIAL ELEMENT LOAD BALANCE
            DOMAIN    1     THREAD    NUMBER OF ELEMENTS
                              1            3
                              2            4
                              3            3
                              4            3
                              5            4
                              6            4
                              7            4
 
	UNSYMMETRIC DIRECT SPARSE SOLVER RUNNING ON
 	1 HOST:        1 MPI RANK  x 7 THREADS, 1 GPU PER RANK
 	NUMBER OF EQUATIONS:     72
 	NUMBER OF RHS:           1
 	NUMBER OF FLOPS:         2.893e+04

     CHECK POINT   START OF SOLVER    

     CHECK POINT  END OF SOLVER       

       ELAPSED USER TIME (SEC)      =  0.10000    
       ELAPSED SYSTEM TIME (SEC)    =   0.0000    
       ELAPSED TOTAL CPU TIME (SEC) =  0.10000    
       ELAPSED WALLCLOCK TIME (SEC) =          0

               CONVERGENCE CHECKS FOR EQUILIBRIUM ITERATION     1


 AVERAGE FORCE                       2.24       TIME AVG. FORCE        2.24    
 LARGEST RESIDUAL FORCE            -4.818E-05   AT NODE         30   DOF  1
   INSTANCE: Part Instance                                                                   
 LARGEST INCREMENT OF DISP.         1.188E-04   AT NODE         32   DOF  2
   INSTANCE: Part Instance                                                                   
 LARGEST CORRECTION TO DISP.        1.188E-04   AT NODE         32   DOF  2
   INSTANCE: Part Instance                                                                   
 ESTIMATE OF DISP.    CORRECTION   -7.146E-10
 FORCE     EQUILIB. ACCEPTED BASED ON SMALL RESIDUAL AND ESTIMATED CORRECTION

 ITERATION SUMMARY FOR THE INCREMENT:   1 TOTAL ITERATIONS, OF WHICH
   0 ARE SEVERE DISCONTINUITY ITERATIONS AND  1 ARE EQUILIBRIUM ITERATIONS.

 TIME INCREMENT COMPLETED  8.900E-03,  FRACTION OF STEP COMPLETED  8.900E-03
 STEP TIME COMPLETED       8.900E-03,  TOTAL TIME COMPLETED        8.900E-03


  INCREMENT     2 STARTS. ATTEMPT NUMBER  1, TIME INCREMENT  8.900E-03
 
	UNSYMMETRIC DIRECT SPARSE SOLVER RUNNING ON
 	1 HOST:        1 MPI RANK  x 7 THREADS, 1 GPU PER RANK
 	NUMBER OF EQUATIONS:     72
 	NUMBER OF RHS:           1
 	NUMBER OF FLOPS:         2.893e+04

     CHECK POINT   START OF SOLVER    

     CHECK POINT  END OF SOLVER       

       ELAPSED USER TIME (SEC)      =  0.10000    
       ELAPSED SYSTEM TIME (SEC)    =   0.0000    
       ELAPSED TOTAL CPU TIME (SEC) =  0.10000    
       ELAPSED WALLCLOCK TIME (SEC) =          0

               CONVERGENCE CHECKS FOR EQUILIBRIUM ITERATION     1


 AVERAGE FORCE                       6.73       TIME AVG. FORCE        4.49    
 LARGEST RESIDUAL FORCE             1.146E-09   AT NODE         32   DOF  2
   INSTANCE: Part Instance                                                                   
 LARGEST INCREMENT OF DISP.         1.188E-04   AT NODE         36   DOF  2
   INSTANCE: Part Instance                                                                   
 LARGEST CORRECTION TO DISP.        1.430E-09   AT NODE         36   DOF  2
   INSTANCE: Part Instance                                                                   
          THE FORCE     EQUILIBRIUM RESPONSE WAS LINEAR IN THIS INCREMENT

 ITERATION SUMMARY FOR THE INCREMENT:   1 TOTAL ITERATIONS, OF WHICH
   0 ARE SEVERE DISCONTINUITY ITERATIONS AND  1 ARE EQUILIBRIUM ITERATIONS.

 TIME INCREMENT COMPLETED  8.900E-03,  FRACTION OF STEP COMPLETED  1.780E-02
 STEP TIME COMPLETED       1.780E-02,  TOTAL TIME COMPLETED        1.780E-02


  INCREMENT     3 STARTS. ATTEMPT NUMBER  1, TIME INCREMENT  8.900E-03
 
	UNSYMMETRIC DIRECT SPARSE SOLVER RUNNING ON
 	1 HOST:        1 MPI RANK  x 7 THREADS, 1 GPU PER RANK
 	NUMBER OF EQUATIONS:     72
 	NUMBER OF RHS:           1
 	NUMBER OF FLOPS:         2.893e+04

     CHECK POINT   START OF SOLVER    

     CHECK POINT  END OF SOLVER       

       ELAPSED USER TIME (SEC)      =  0.10000    
       ELAPSED SYSTEM TIME (SEC)    =   0.0000    
       ELAPSED TOTAL CPU TIME (SEC) =  0.10000    
       ELAPSED WALLCLOCK TIME (SEC) =          0

               CONVERGENCE CHECKS FOR EQUILIBRIUM ITERATION     1


 AVERAGE FORCE                       10.1       TIME AVG. FORCE        6.36    
 LARGEST RESIDUAL FORCE             1.123E-09   AT NODE         35   DOF  2
   INSTANCE: Part Instance                                                                   
 LARGEST INCREMENT OF DISP.         1.188E-04   AT NODE         31   DOF  2
   INSTANCE: Part Instance                                                                   
 LARGEST CORRECTION TO DISP.        1.511E-09   AT NODE         36   DOF  1
   INSTANCE: Part Instance                                                                   
          THE FORCE     EQUILIBRIUM RESPONSE WAS LINEAR IN THIS INCREMENT

 ITERATION SUMMARY FOR THE INCREMENT:   1 TOTAL ITERATIONS, OF WHICH
   0 ARE SEVERE DISCONTINUITY ITERATIONS AND  1 ARE EQUILIBRIUM ITERATIONS.

 TIME INCREMENT COMPLETED  8.900E-03,  FRACTION OF STEP COMPLETED  2.670E-02
 STEP TIME COMPLETED       2.670E-02,  TOTAL TIME COMPLETED        2.670E-02


  INCREMENT     4 STARTS. ATTEMPT NUMBER  1, TIME INCREMENT  8.900E-03
 
	UNSYMMETRIC DIRECT SPARSE SOLVER RUNNING ON
 	1 HOST:        1 MPI RANK  x 7 THREADS, 1 GPU PER RANK
 	NUMBER OF EQUATIONS:     72
 	NUMBER OF RHS:           1
 	NUMBER OF FLOPS:         2.893e+04

     CHECK POINT   START OF SOLVER    

     CHECK POINT  END OF SOLVER       

       ELAPSED USER TIME (SEC)      =   0.0000    
       ELAPSED SYSTEM TIME (SEC)    =   0.0000    
       ELAPSED TOTAL CPU TIME (SEC) =   0.0000    
       ELAPSED WALLCLOCK TIME (SEC) =          0

               CONVERGENCE CHECKS FOR EQUILIBRIUM ITERATION     1


 AVERAGE FORCE                       13.5       TIME AVG. FORCE        8.13    
 LARGEST RESIDUAL FORCE             1.131E-09   AT NODE         34   DOF  2
   INSTANCE: Part Instance                                                                   
 LARGEST INCREMENT OF DISP.         1.188E-04   AT NODE         31   DOF  2
   INSTANCE: Part Instance                                                                   
 LARGEST CORRECTION TO DISP.        1.411E-09   AT NODE         36   DOF  2
   INSTANCE: Part Instance                                                                   
          THE FORCE     EQUILIBRIUM RESPONSE WAS LINEAR IN THIS INCREMENT

 ITERATION SUMMARY FOR THE INCREMENT:   1 TOTAL ITERATIONS, OF WHICH
   0 ARE SEVERE DISCONTINUITY ITERATIONS AND  1 ARE EQUILIBRIUM ITERATIONS.

 TIME INCREMENT COMPLETED  8.900E-03,  FRACTION OF STEP COMPLETED  3.560E-02
 STEP TIME COMPLETED       3.560E-02,  TOTAL TIME COMPLETED        3.560E-02


  INCREMENT     5 STARTS. ATTEMPT NUMBER  1, TIME INCREMENT  8.900E-03
 
	UNSYMMETRIC DIRECT SPARSE SOLVER RUNNING ON
 	1 HOST:        1 MPI RANK  x 7 THREADS, 1 GPU PER RANK
 	NUMBER OF EQUATIONS:     72
 	NUMBER OF RHS:           1
 	NUMBER OF FLOPS:         2.893e+04

     CHECK POINT   START OF SOLVER    

     CHECK POINT  END OF SOLVER       

       ELAPSED USER TIME (SEC)      =  0.10000    
       ELAPSED SYSTEM TIME (SEC)    =   0.0000    
       ELAPSED TOTAL CPU TIME (SEC) =  0.10000    
       ELAPSED WALLCLOCK TIME (SEC) =          0

               CONVERGENCE CHECKS FOR EQUILIBRIUM ITERATION     1


 AVERAGE FORCE                       16.8       TIME AVG. FORCE        9.87    
 LARGEST RESIDUAL FORCE             1.131E-09   AT NODE         34   DOF  2
   INSTANCE: Part Instance                                                                   
 LARGEST INCREMENT OF DISP.         1.188E-04   AT NODE         36   DOF  2
   INSTANCE: Part Instance                                                                   
 LARGEST CORRECTION TO DISP.        1.411E-09   AT NODE         36   DOF  2
   INSTANCE: Part Instance                                                                   
          THE FORCE     EQUILIBRIUM RESPONSE WAS LINEAR IN THIS INCREMENT

 ITERATION SUMMARY FOR THE INCREMENT:   1 TOTAL ITERATIONS, OF WHICH
   0 ARE SEVERE DISCONTINUITY ITERATIONS AND  1 ARE EQUILIBRIUM ITERATIONS.

 TIME INCREMENT COMPLETED  8.900E-03,  FRACTION OF STEP COMPLETED  4.450E-02
 STEP TIME COMPLETED       4.450E-02,  TOTAL TIME COMPLETED        4.450E-02


  INCREMENT     6 STARTS. ATTEMPT NUMBER  1, TIME INCREMENT  8.900E-03
 
	UNSYMMETRIC DIRECT SPARSE SOLVER RUNNING ON
 	1 HOST:        1 MPI RANK  x 7 THREADS, 1 GPU PER RANK
 	NUMBER OF EQUATIONS:     72
 	NUMBER OF RHS:           1
 	NUMBER OF FLOPS:         2.893e+04

     CHECK POINT   START OF SOLVER    

     CHECK POINT  END OF SOLVER       

       ELAPSED USER TIME (SEC)      =  0.10000    
       ELAPSED SYSTEM TIME (SEC)    =   0.0000    
       ELAPSED TOTAL CPU TIME (SEC) =  0.10000    
       ELAPSED WALLCLOCK TIME (SEC) =          0

               CONVERGENCE CHECKS FOR EQUILIBRIUM ITERATION     1


 AVERAGE FORCE                       20.2       TIME AVG. FORCE        11.6    
 LARGEST RESIDUAL FORCE             1.131E-09   AT NODE         35   DOF  2
   INSTANCE: Part Instance                                                                   
 LARGEST INCREMENT OF DISP.         1.188E-04   AT NODE         36   DOF  2
   INSTANCE: Part Instance                                                                   
 LARGEST CORRECTION TO DISP.        1.411E-09   AT NODE         34   DOF  2
   INSTANCE: Part Instance                                                                   
          THE FORCE     EQUILIBRIUM RESPONSE WAS LINEAR IN THIS INCREMENT

 ITERATION SUMMARY FOR THE INCREMENT:   1 TOTAL ITERATIONS, OF WHICH
   0 ARE SEVERE DISCONTINUITY ITERATIONS AND  1 ARE EQUILIBRIUM ITERATIONS.

 TIME INCREMENT COMPLETED  8.900E-03,  FRACTION OF STEP COMPLETED  5.340E-02
 STEP TIME COMPLETED       5.340E-02,  TOTAL TIME COMPLETED        5.340E-02


  INCREMENT     7 STARTS. ATTEMPT NUMBER  1, TIME INCREMENT  8.900E-03
 
	UNSYMMETRIC DIRECT SPARSE SOLVER RUNNING ON
 	1 HOST:        1 MPI RANK  x 7 THREADS, 1 GPU PER RANK
 	NUMBER OF EQUATIONS:     72
 	NUMBER OF RHS:           1
 	NUMBER OF FLOPS:         2.893e+04

     CHECK POINT   START OF SOLVER    

     CHECK POINT  END OF SOLVER       

       ELAPSED USER TIME (SEC)      =   0.0000    
       ELAPSED SYSTEM TIME (SEC)    =   0.0000    
       ELAPSED TOTAL CPU TIME (SEC) =   0.0000    
       ELAPSED WALLCLOCK TIME (SEC) =          0

               CONVERGENCE CHECKS FOR EQUILIBRIUM ITERATION     1


 AVERAGE FORCE                       23.6       TIME AVG. FORCE        13.3    
 LARGEST RESIDUAL FORCE             1.131E-09   AT NODE         32   DOF  2
   INSTANCE: Part Instance                                                                   
 LARGEST INCREMENT OF DISP.         1.188E-04   AT NODE         35   DOF  2
   INSTANCE: Part Instance                                                                   
 LARGEST CORRECTION TO DISP.        1.411E-09   AT NODE         31   DOF  2
   INSTANCE: Part Instance                                                                   
          THE FORCE     EQUILIBRIUM RESPONSE WAS LINEAR IN THIS INCREMENT

 ITERATION SUMMARY FOR THE INCREMENT:   1 TOTAL ITERATIONS, OF WHICH
   0 ARE SEVERE DISCONTINUITY ITERATIONS AND  1 ARE EQUILIBRIUM ITERATIONS.

 TIME INCREMENT COMPLETED  8.900E-03,  FRACTION OF STEP COMPLETED  6.230E-02
 STEP TIME COMPLETED       6.230E-02,  TOTAL TIME COMPLETED        6.230E-02


  INCREMENT     8 STARTS. ATTEMPT NUMBER  1, TIME INCREMENT  8.900E-03
 
	UNSYMMETRIC DIRECT SPARSE SOLVER RUNNING ON
 	1 HOST:        1 MPI RANK  x 7 THREADS, 1 GPU PER RANK
 	NUMBER OF EQUATIONS:     72
 	NUMBER OF RHS:           1
 	NUMBER OF FLOPS:         2.893e+04

     CHECK POINT   START OF SOLVER    

     CHECK POINT  END OF SOLVER       

       ELAPSED USER TIME (SEC)      =   0.0000    
       ELAPSED SYSTEM TIME (SEC)    =   0.0000    
       ELAPSED TOTAL CPU TIME (SEC) =   0.0000    
       ELAPSED WALLCLOCK TIME (SEC) =          0

               CONVERGENCE CHECKS FOR EQUILIBRIUM ITERATION     1


 AVERAGE FORCE                       26.9       TIME AVG. FORCE        15.0    
 LARGEST RESIDUAL FORCE             1.131E-09   AT NODE         34   DOF  2
   INSTANCE: Part Instance                                                                   
 LARGEST INCREMENT OF DISP.         1.188E-04   AT NODE         36   DOF  2
   INSTANCE: Part Instance                                                                   
 LARGEST CORRECTION TO DISP.        1.412E-09   AT NODE         36   DOF  2
   INSTANCE: Part Instance                                                                   
          THE FORCE     EQUILIBRIUM RESPONSE WAS LINEAR IN THIS INCREMENT

 ITERATION SUMMARY FOR THE INCREMENT:   1 TOTAL ITERATIONS, OF WHICH
   0 ARE SEVERE DISCONTINUITY ITERATIONS AND  1 ARE EQUILIBRIUM ITERATIONS.

 TIME INCREMENT COMPLETED  8.900E-03,  FRACTION OF STEP COMPLETED  7.120E-02
 STEP TIME COMPLETED       7.120E-02,  TOTAL TIME COMPLETED        7.120E-02


  INCREMENT     9 STARTS. ATTEMPT NUMBER  1, TIME INCREMENT  8.900E-03
 
	UNSYMMETRIC DIRECT SPARSE SOLVER RUNNING ON
 	1 HOST:        1 MPI RANK  x 7 THREADS, 1 GPU PER RANK
 	NUMBER OF EQUATIONS:     72
 	NUMBER OF RHS:           1
 	NUMBER OF FLOPS:         2.893e+04

     CHECK POINT   START OF SOLVER    

     CHECK POINT  END OF SOLVER       

       ELAPSED USER TIME (SEC)      =   0.0000    
       ELAPSED SYSTEM TIME (SEC)    =   0.0000    
       ELAPSED TOTAL CPU TIME (SEC) =   0.0000    
       ELAPSED WALLCLOCK TIME (SEC) =          0

               CONVERGENCE CHECKS FOR EQUILIBRIUM ITERATION     1


 AVERAGE FORCE                       30.3       TIME AVG. FORCE        16.7    
 LARGEST RESIDUAL FORCE             1.131E-09   AT NODE         35   DOF  2
   INSTANCE: Part Instance                                                                   
 LARGEST INCREMENT OF DISP.         1.188E-04   AT NODE         36   DOF  2
   INSTANCE: Part Instance                                                                   
 LARGEST CORRECTION TO DISP.        1.412E-09   AT NODE         35   DOF  2
   INSTANCE: Part Instance                                                                   
          THE FORCE     EQUILIBRIUM RESPONSE WAS LINEAR IN THIS INCREMENT

 ITERATION SUMMARY FOR THE INCREMENT:   1 TOTAL ITERATIONS, OF WHICH
   0 ARE SEVERE DISCONTINUITY ITERATIONS AND  1 ARE EQUILIBRIUM ITERATIONS.

 TIME INCREMENT COMPLETED  8.900E-03,  FRACTION OF STEP COMPLETED  8.010E-02
 STEP TIME COMPLETED       8.010E-02,  TOTAL TIME COMPLETED        8.010E-02


  INCREMENT    10 STARTS. ATTEMPT NUMBER  1, TIME INCREMENT  8.900E-03
 
	UNSYMMETRIC DIRECT SPARSE SOLVER RUNNING ON
 	1 HOST:        1 MPI RANK  x 7 THREADS, 1 GPU PER RANK
 	NUMBER OF EQUATIONS:     72
 	NUMBER OF RHS:           1
 	NUMBER OF FLOPS:         2.893e+04

     CHECK POINT   START OF SOLVER    

     CHECK POINT  END OF SOLVER       

       ELAPSED USER TIME (SEC)      =  0.10000    
       ELAPSED SYSTEM TIME (SEC)    =   0.0000    
       ELAPSED TOTAL CPU TIME (SEC) =  0.10000    
       ELAPSED WALLCLOCK TIME (SEC) =          0

               CONVERGENCE CHECKS FOR EQUILIBRIUM ITERATION     1


 AVERAGE FORCE                       33.7       TIME AVG. FORCE        18.4    
 LARGEST RESIDUAL FORCE             1.131E-09   AT NODE         35   DOF  2
   INSTANCE: Part Instance                                                                   
 LARGEST INCREMENT OF DISP.         1.188E-04   AT NODE         36   DOF  2
   INSTANCE: Part Instance                                                                   
 LARGEST CORRECTION TO DISP.        1.412E-09   AT NODE         36   DOF  2
   INSTANCE: Part Instance                                                                   
          THE FORCE     EQUILIBRIUM RESPONSE WAS LINEAR IN THIS INCREMENT

 ITERATION SUMMARY FOR THE INCREMENT:   1 TOTAL ITERATIONS, OF WHICH
   0 ARE SEVERE DISCONTINUITY ITERATIONS AND  1 ARE EQUILIBRIUM ITERATIONS.

 TIME INCREMENT COMPLETED  8.900E-03,  FRACTION OF STEP COMPLETED  8.900E-02
 STEP TIME COMPLETED       8.900E-02,  TOTAL TIME COMPLETED        8.900E-02


  INCREMENT    11 STARTS. ATTEMPT NUMBER  1, TIME INCREMENT  8.900E-03
 
	UNSYMMETRIC DIRECT SPARSE SOLVER RUNNING ON
 	1 HOST:        1 MPI RANK  x 7 THREADS, 1 GPU PER RANK
 	NUMBER OF EQUATIONS:     72
 	NUMBER OF RHS:           1
 	NUMBER OF FLOPS:         2.893e+04

     CHECK POINT   START OF SOLVER    

     CHECK POINT  END OF SOLVER       

       ELAPSED USER TIME (SEC)      =  0.10000    
       ELAPSED SYSTEM TIME (SEC)    =   0.0000    
       ELAPSED TOTAL CPU TIME (SEC) =  0.10000    
       ELAPSED WALLCLOCK TIME (SEC) =          0

               CONVERGENCE CHECKS FOR EQUILIBRIUM ITERATION     1


 AVERAGE FORCE                       37.0       TIME AVG. FORCE        20.1    
 LARGEST RESIDUAL FORCE             1.131E-09   AT NODE         32   DOF  2
   INSTANCE: Part Instance                                                                   
 LARGEST INCREMENT OF DISP.         1.188E-04   AT NODE         33   DOF  2
   INSTANCE: Part Instance                                                                   
 LARGEST CORRECTION TO DISP.        1.412E-09   AT NODE         33   DOF  2
   INSTANCE: Part Instance                                                                   
          THE FORCE     EQUILIBRIUM RESPONSE WAS LINEAR IN THIS INCREMENT

 ITERATION SUMMARY FOR THE INCREMENT:   1 TOTAL ITERATIONS, OF WHICH
   0 ARE SEVERE DISCONTINUITY ITERATIONS AND  1 ARE EQUILIBRIUM ITERATIONS.

 TIME INCREMENT COMPLETED  8.900E-03,  FRACTION OF STEP COMPLETED  9.790E-02
 STEP TIME COMPLETED       9.790E-02,  TOTAL TIME COMPLETED        9.790E-02


  INCREMENT    12 STARTS. ATTEMPT NUMBER  1, TIME INCREMENT  8.900E-03
 
	UNSYMMETRIC DIRECT SPARSE SOLVER RUNNING ON
 	1 HOST:        1 MPI RANK  x 7 THREADS, 1 GPU PER RANK
 	NUMBER OF EQUATIONS:     72
 	NUMBER OF RHS:           1
 	NUMBER OF FLOPS:         2.893e+04

     CHECK POINT   START OF SOLVER    

     CHECK POINT  END OF SOLVER       

       ELAPSED USER TIME (SEC)      =  0.10000    
       ELAPSED SYSTEM TIME (SEC)    =   0.0000    
       ELAPSED TOTAL CPU TIME (SEC) =  0.10000    
       ELAPSED WALLCLOCK TIME (SEC) =          0

               CONVERGENCE CHECKS FOR EQUILIBRIUM ITERATION     1


 AVERAGE FORCE                       40.4       TIME AVG. FORCE        21.8    
 LARGEST RESIDUAL FORCE             1.131E-09   AT NODE         32   DOF  2
   INSTANCE: Part Instance                                                                   
 LARGEST INCREMENT OF DISP.         1.188E-04   AT NODE         36   DOF  2
   INSTANCE: Part Instance                                                                   
 LARGEST CORRECTION TO DISP.        1.412E-09   AT NODE         36   DOF  2
   INSTANCE: Part Instance                                                                   
          THE FORCE     EQUILIBRIUM RESPONSE WAS LINEAR IN THIS INCREMENT

 ITERATION SUMMARY FOR THE INCREMENT:   1 TOTAL ITERATIONS, OF WHICH
   0 ARE SEVERE DISCONTINUITY ITERATIONS AND  1 ARE EQUILIBRIUM ITERATIONS.

 TIME INCREMENT COMPLETED  8.900E-03,  FRACTION OF STEP COMPLETED  0.107    
 STEP TIME COMPLETED       0.107    ,  TOTAL TIME COMPLETED        0.107    


  INCREMENT    13 STARTS. ATTEMPT NUMBER  1, TIME INCREMENT  8.900E-03
 
	UNSYMMETRIC DIRECT SPARSE SOLVER RUNNING ON
 	1 HOST:        1 MPI RANK  x 7 THREADS, 1 GPU PER RANK
 	NUMBER OF EQUATIONS:     72
 	NUMBER OF RHS:           1
 	NUMBER OF FLOPS:         2.893e+04

     CHECK POINT   START OF SOLVER    

     CHECK POINT  END OF SOLVER       

       ELAPSED USER TIME (SEC)      =  0.10000    
       ELAPSED SYSTEM TIME (SEC)    =   0.0000    
       ELAPSED TOTAL CPU TIME (SEC) =  0.10000    
       ELAPSED WALLCLOCK TIME (SEC) =          0

               CONVERGENCE CHECKS FOR EQUILIBRIUM ITERATION     1


 AVERAGE FORCE                       43.8       TIME AVG. FORCE        23.5    
 LARGEST RESIDUAL FORCE             1.131E-09   AT NODE         32   DOF  2
   INSTANCE: Part Instance                                                                   
 LARGEST INCREMENT OF DISP.         1.188E-04   AT NODE         31   DOF  2
   INSTANCE: Part Instance                                                                   
 LARGEST CORRECTION TO DISP.        1.412E-09   AT NODE         31   DOF  2
   INSTANCE: Part Instance                                                                   
          THE FORCE     EQUILIBRIUM RESPONSE WAS LINEAR IN THIS INCREMENT

 ITERATION SUMMARY FOR THE INCREMENT:   1 TOTAL ITERATIONS, OF WHICH
   0 ARE SEVERE DISCONTINUITY ITERATIONS AND  1 ARE EQUILIBRIUM ITERATIONS.

 TIME INCREMENT COMPLETED  8.900E-03,  FRACTION OF STEP COMPLETED  0.116    
 STEP TIME COMPLETED       0.116    ,  TOTAL TIME COMPLETED        0.116    


  INCREMENT    14 STARTS. ATTEMPT NUMBER  1, TIME INCREMENT  8.900E-03
 
	UNSYMMETRIC DIRECT SPARSE SOLVER RUNNING ON
 	1 HOST:        1 MPI RANK  x 7 THREADS, 1 GPU PER RANK
 	NUMBER OF EQUATIONS:     72
 	NUMBER OF RHS:           1
 	NUMBER OF FLOPS:         2.893e+04

     CHECK POINT   START OF SOLVER    

     CHECK POINT  END OF SOLVER       

       ELAPSED USER TIME (SEC)      =  0.10000    
       ELAPSED SYSTEM TIME (SEC)    =   0.0000    
       ELAPSED TOTAL CPU TIME (SEC) =  0.10000    
       ELAPSED WALLCLOCK TIME (SEC) =          0

               CONVERGENCE CHECKS FOR EQUILIBRIUM ITERATION     1


 AVERAGE FORCE                       47.1       TIME AVG. FORCE        25.2    
 LARGEST RESIDUAL FORCE             1.131E-09   AT NODE         35   DOF  2
   INSTANCE: Part Instance                                                                   
 LARGEST INCREMENT OF DISP.         1.188E-04   AT NODE         31   DOF  2
   INSTANCE: Part Instance                                                                   
 LARGEST CORRECTION TO DISP.        1.412E-09   AT NODE         31   DOF  2
   INSTANCE: Part Instance                                                                   
          THE FORCE     EQUILIBRIUM RESPONSE WAS LINEAR IN THIS INCREMENT

 ITERATION SUMMARY FOR THE INCREMENT:   1 TOTAL ITERATIONS, OF WHICH
   0 ARE SEVERE DISCONTINUITY ITERATIONS AND  1 ARE EQUILIBRIUM ITERATIONS.

 TIME INCREMENT COMPLETED  8.900E-03,  FRACTION OF STEP COMPLETED  0.125    
 STEP TIME COMPLETED       0.125    ,  TOTAL TIME COMPLETED        0.125    


  INCREMENT    15 STARTS. ATTEMPT NUMBER  1, TIME INCREMENT  8.900E-03
 
	UNSYMMETRIC DIRECT SPARSE SOLVER RUNNING ON
 	1 HOST:        1 MPI RANK  x 7 THREADS, 1 GPU PER RANK
 	NUMBER OF EQUATIONS:     72
 	NUMBER OF RHS:           1
 	NUMBER OF FLOPS:         2.893e+04

     CHECK POINT   START OF SOLVER    

     CHECK POINT  END OF SOLVER       

       ELAPSED USER TIME (SEC)      =  0.10000    
       ELAPSED SYSTEM TIME (SEC)    =   0.0000    
       ELAPSED TOTAL CPU TIME (SEC) =  0.10000    
       ELAPSED WALLCLOCK TIME (SEC) =          1

               CONVERGENCE CHECKS FOR EQUILIBRIUM ITERATION     1


 AVERAGE FORCE                       50.5       TIME AVG. FORCE        26.9    
 LARGEST RESIDUAL FORCE             1.131E-09   AT NODE         35   DOF  2
   INSTANCE: Part Instance                                                                   
 LARGEST INCREMENT OF DISP.         1.188E-04   AT NODE         36   DOF  2
   INSTANCE: Part Instance                                                                   
 LARGEST CORRECTION TO DISP.        1.412E-09   AT NODE         36   DOF  2
   INSTANCE: Part Instance                                                                   
          THE FORCE     EQUILIBRIUM RESPONSE WAS LINEAR IN THIS INCREMENT

 ITERATION SUMMARY FOR THE INCREMENT:   1 TOTAL ITERATIONS, OF WHICH
   0 ARE SEVERE DISCONTINUITY ITERATIONS AND  1 ARE EQUILIBRIUM ITERATIONS.

 TIME INCREMENT COMPLETED  8.900E-03,  FRACTION OF STEP COMPLETED  0.134    
 STEP TIME COMPLETED       0.134    ,  TOTAL TIME COMPLETED        0.134    


  INCREMENT    16 STARTS. ATTEMPT NUMBER  1, TIME INCREMENT  8.900E-03
 
	UNSYMMETRIC DIRECT SPARSE SOLVER RUNNING ON
 	1 HOST:        1 MPI RANK  x 7 THREADS, 1 GPU PER RANK
 	NUMBER OF EQUATIONS:     72
 	NUMBER OF RHS:           1
 	NUMBER OF FLOPS:         2.893e+04

     CHECK POINT   START OF SOLVER    

     CHECK POINT  END OF SOLVER       

       ELAPSED USER TIME (SEC)      =  0.10000    
       ELAPSED SYSTEM TIME (SEC)    =   0.0000    
       ELAPSED TOTAL CPU TIME (SEC) =  0.10000    
       ELAPSED WALLCLOCK TIME (SEC) =          0

               CONVERGENCE CHECKS FOR EQUILIBRIUM ITERATION     1


 AVERAGE FORCE                       53.9       TIME AVG. FORCE        28.5    
 LARGEST RESIDUAL FORCE             1.131E-09   AT NODE         35   DOF  2
   INSTANCE: Part Instance                                                                   
 LARGEST INCREMENT OF DISP.         1.188E-04   AT NODE         34   DOF  2
   INSTANCE: Part Instance                                                                   
 LARGEST CORRECTION TO DISP.        1.412E-09   AT NODE         32   DOF  2
   INSTANCE: Part Instance                                                                   
          THE FORCE     EQUILIBRIUM RESPONSE WAS LINEAR IN THIS INCREMENT

 ITERATION SUMMARY FOR THE INCREMENT:   1 TOTAL ITERATIONS, OF WHICH
   0 ARE SEVERE DISCONTINUITY ITERATIONS AND  1 ARE EQUILIBRIUM ITERATIONS.

 TIME INCREMENT COMPLETED  8.900E-03,  FRACTION OF STEP COMPLETED  0.142    
 STEP TIME COMPLETED       0.142    ,  TOTAL TIME COMPLETED        0.142    


  INCREMENT    17 STARTS. ATTEMPT NUMBER  1, TIME INCREMENT  8.900E-03
 
	UNSYMMETRIC DIRECT SPARSE SOLVER RUNNING ON
 	1 HOST:        1 MPI RANK  x 7 THREADS, 1 GPU PER RANK
 	NUMBER OF EQUATIONS:     72
 	NUMBER OF RHS:           1
 	NUMBER OF FLOPS:         2.893e+04

     CHECK POINT   START OF SOLVER    

     CHECK POINT  END OF SOLVER       

       ELAPSED USER TIME (SEC)      =  0.10000    
       ELAPSED SYSTEM TIME (SEC)    =   0.0000    
       ELAPSED TOTAL CPU TIME (SEC) =  0.10000    
       ELAPSED WALLCLOCK TIME (SEC) =          0

               CONVERGENCE CHECKS FOR EQUILIBRIUM ITERATION     1


 AVERAGE FORCE                       57.2       TIME AVG. FORCE        30.2    
 LARGEST RESIDUAL FORCE             1.131E-09   AT NODE         35   DOF  2
   INSTANCE: Part Instance                                                                   
 LARGEST INCREMENT OF DISP.         1.188E-04   AT NODE         32   DOF  2
   INSTANCE: Part Instance                                                                   
 LARGEST CORRECTION TO DISP.        1.412E-09   AT NODE         31   DOF  2
   INSTANCE: Part Instance                                                                   
          THE FORCE     EQUILIBRIUM RESPONSE WAS LINEAR IN THIS INCREMENT

 ITERATION SUMMARY FOR THE INCREMENT:   1 TOTAL ITERATIONS, OF WHICH
   0 ARE SEVERE DISCONTINUITY ITERATIONS AND  1 ARE EQUILIBRIUM ITERATIONS.

 TIME INCREMENT COMPLETED  8.900E-03,  FRACTION OF STEP COMPLETED  0.151    
 STEP TIME COMPLETED       0.151    ,  TOTAL TIME COMPLETED        0.151    


  INCREMENT    18 STARTS. ATTEMPT NUMBER  1, TIME INCREMENT  8.900E-03
 
	UNSYMMETRIC DIRECT SPARSE SOLVER RUNNING ON
 	1 HOST:        1 MPI RANK  x 7 THREADS, 1 GPU PER RANK
 	NUMBER OF EQUATIONS:     72
 	NUMBER OF RHS:           1
 	NUMBER OF FLOPS:         2.893e+04

     CHECK POINT   START OF SOLVER    

     CHECK POINT  END OF SOLVER       

       ELAPSED USER TIME (SEC)      =  0.10000    
       ELAPSED SYSTEM TIME (SEC)    =   0.0000    
       ELAPSED TOTAL CPU TIME (SEC) =  0.10000    
       ELAPSED WALLCLOCK TIME (SEC) =          0

               CONVERGENCE CHECKS FOR EQUILIBRIUM ITERATION     1


 AVERAGE FORCE                       60.6       TIME AVG. FORCE        31.9    
 LARGEST RESIDUAL FORCE             1.131E-09   AT NODE         35   DOF  2
   INSTANCE: Part Instance                                                                   
 LARGEST INCREMENT OF DISP.         1.188E-04   AT NODE         36   DOF  2
   INSTANCE: Part Instance                                                                   
 LARGEST CORRECTION TO DISP.        1.412E-09   AT NODE         36   DOF  2
   INSTANCE: Part Instance                                                                   
          THE FORCE     EQUILIBRIUM RESPONSE WAS LINEAR IN THIS INCREMENT

 ITERATION SUMMARY FOR THE INCREMENT:   1 TOTAL ITERATIONS, OF WHICH
   0 ARE SEVERE DISCONTINUITY ITERATIONS AND  1 ARE EQUILIBRIUM ITERATIONS.

 TIME INCREMENT COMPLETED  8.900E-03,  FRACTION OF STEP COMPLETED  0.160    
 STEP TIME COMPLETED       0.160    ,  TOTAL TIME COMPLETED        0.160    


  INCREMENT    19 STARTS. ATTEMPT NUMBER  1, TIME INCREMENT  8.900E-03
 
	UNSYMMETRIC DIRECT SPARSE SOLVER RUNNING ON
 	1 HOST:        1 MPI RANK  x 7 THREADS, 1 GPU PER RANK
 	NUMBER OF EQUATIONS:     72
 	NUMBER OF RHS:           1
 	NUMBER OF FLOPS:         2.893e+04

     CHECK POINT   START OF SOLVER    

     CHECK POINT  END OF SOLVER       

       ELAPSED USER TIME (SEC)      =  0.10000    
       ELAPSED SYSTEM TIME (SEC)    =   0.0000    
       ELAPSED TOTAL CPU TIME (SEC) =  0.10000    
       ELAPSED WALLCLOCK TIME (SEC) =          0

               CONVERGENCE CHECKS FOR EQUILIBRIUM ITERATION     1


 AVERAGE FORCE                       64.0       TIME AVG. FORCE        33.6    
 LARGEST RESIDUAL FORCE             1.131E-09   AT NODE         35   DOF  2
   INSTANCE: Part Instance                                                                   
 LARGEST INCREMENT OF DISP.         1.188E-04   AT NODE         31   DOF  2
   INSTANCE: Part Instance                                                                   
 LARGEST CORRECTION TO DISP.        1.412E-09   AT NODE         31   DOF  2
   INSTANCE: Part Instance                                                                   
          THE FORCE     EQUILIBRIUM RESPONSE WAS LINEAR IN THIS INCREMENT

 ITERATION SUMMARY FOR THE INCREMENT:   1 TOTAL ITERATIONS, OF WHICH
   0 ARE SEVERE DISCONTINUITY ITERATIONS AND  1 ARE EQUILIBRIUM ITERATIONS.

 TIME INCREMENT COMPLETED  8.900E-03,  FRACTION OF STEP COMPLETED  0.169    
 STEP TIME COMPLETED       0.169    ,  TOTAL TIME COMPLETED        0.169    


  INCREMENT    20 STARTS. ATTEMPT NUMBER  1, TIME INCREMENT  8.900E-03
 
	UNSYMMETRIC DIRECT SPARSE SOLVER RUNNING ON
 	1 HOST:        1 MPI RANK  x 7 THREADS, 1 GPU PER RANK
 	NUMBER OF EQUATIONS:     72
 	NUMBER OF RHS:           1
 	NUMBER OF FLOPS:         2.893e+04

     CHECK POINT   START OF SOLVER    

     CHECK POINT  END OF SOLVER       

       ELAPSED USER TIME (SEC)      =   0.0000    
       ELAPSED SYSTEM TIME (SEC)    =   0.0000    
       ELAPSED TOTAL CPU TIME (SEC) =   0.0000    
       ELAPSED WALLCLOCK TIME (SEC) =          0

               CONVERGENCE CHECKS FOR EQUILIBRIUM ITERATION     1


 AVERAGE FORCE                       67.3       TIME AVG. FORCE        35.3    
 LARGEST RESIDUAL FORCE             1.131E-09   AT NODE         32   DOF  2
   INSTANCE: Part Instance                                                                   
 LARGEST INCREMENT OF DISP.         1.188E-04   AT NODE         35   DOF  2
   INSTANCE: Part Instance                                                                   
 LARGEST CORRECTION TO DISP.        1.412E-09   AT NODE         36   DOF  2
   INSTANCE: Part Instance                                                                   
          THE FORCE     EQUILIBRIUM RESPONSE WAS LINEAR IN THIS INCREMENT

 ITERATION SUMMARY FOR THE INCREMENT:   1 TOTAL ITERATIONS, OF WHICH
   0 ARE SEVERE DISCONTINUITY ITERATIONS AND  1 ARE EQUILIBRIUM ITERATIONS.

 TIME INCREMENT COMPLETED  8.900E-03,  FRACTION OF STEP COMPLETED  0.178    
 STEP TIME COMPLETED       0.178    ,  TOTAL TIME COMPLETED        0.178    


  INCREMENT    21 STARTS. ATTEMPT NUMBER  1, TIME INCREMENT  8.900E-03
 
	UNSYMMETRIC DIRECT SPARSE SOLVER RUNNING ON
 	1 HOST:        1 MPI RANK  x 7 THREADS, 1 GPU PER RANK
 	NUMBER OF EQUATIONS:     72
 	NUMBER OF RHS:           1
 	NUMBER OF FLOPS:         2.893e+04

     CHECK POINT   START OF SOLVER    

     CHECK POINT  END OF SOLVER       

       ELAPSED USER TIME (SEC)      =  0.10000    
       ELAPSED SYSTEM TIME (SEC)    =   0.0000    
       ELAPSED TOTAL CPU TIME (SEC) =  0.10000    
       ELAPSED WALLCLOCK TIME (SEC) =          0

               CONVERGENCE CHECKS FOR EQUILIBRIUM ITERATION     1


 AVERAGE FORCE                       70.7       TIME AVG. FORCE        37.0    
 LARGEST RESIDUAL FORCE             1.131E-09   AT NODE         33   DOF  2
   INSTANCE: Part Instance                                                                   
 LARGEST INCREMENT OF DISP.         1.188E-04   AT NODE         36   DOF  2
   INSTANCE: Part Instance                                                                   
 LARGEST CORRECTION TO DISP.        1.412E-09   AT NODE         36   DOF  2
   INSTANCE: Part Instance                                                                   
          THE FORCE     EQUILIBRIUM RESPONSE WAS LINEAR IN THIS INCREMENT

 ITERATION SUMMARY FOR THE INCREMENT:   1 TOTAL ITERATIONS, OF WHICH
   0 ARE SEVERE DISCONTINUITY ITERATIONS AND  1 ARE EQUILIBRIUM ITERATIONS.

 TIME INCREMENT COMPLETED  8.900E-03,  FRACTION OF STEP COMPLETED  0.187    
 STEP TIME COMPLETED       0.187    ,  TOTAL TIME COMPLETED        0.187    


  INCREMENT    22 STARTS. ATTEMPT NUMBER  1, TIME INCREMENT  8.900E-03
 
	UNSYMMETRIC DIRECT SPARSE SOLVER RUNNING ON
 	1 HOST:        1 MPI RANK  x 7 THREADS, 1 GPU PER RANK
 	NUMBER OF EQUATIONS:     72
 	NUMBER OF RHS:           1
 	NUMBER OF FLOPS:         2.893e+04

     CHECK POINT   START OF SOLVER    

     CHECK POINT  END OF SOLVER       

       ELAPSED USER TIME (SEC)      =  0.20000    
       ELAPSED SYSTEM TIME (SEC)    =   0.0000    
       ELAPSED TOTAL CPU TIME (SEC) =  0.20000    
       ELAPSED WALLCLOCK TIME (SEC) =          0

               CONVERGENCE CHECKS FOR EQUILIBRIUM ITERATION     1


 AVERAGE FORCE                       74.1       TIME AVG. FORCE        38.7    
 LARGEST RESIDUAL FORCE             1.131E-09   AT NODE         32   DOF  2
   INSTANCE: Part Instance                                                                   
 LARGEST INCREMENT OF DISP.         1.188E-04   AT NODE         36   DOF  2
   INSTANCE: Part Instance                                                                   
 LARGEST CORRECTION TO DISP.        1.412E-09   AT NODE         33   DOF  2
   INSTANCE: Part Instance                                                                   
          THE FORCE     EQUILIBRIUM RESPONSE WAS LINEAR IN THIS INCREMENT

 ITERATION SUMMARY FOR THE INCREMENT:   1 TOTAL ITERATIONS, OF WHICH
   0 ARE SEVERE DISCONTINUITY ITERATIONS AND  1 ARE EQUILIBRIUM ITERATIONS.

 TIME INCREMENT COMPLETED  8.900E-03,  FRACTION OF STEP COMPLETED  0.196    
 STEP TIME COMPLETED       0.196    ,  TOTAL TIME COMPLETED        0.196    


  INCREMENT    23 STARTS. ATTEMPT NUMBER  1, TIME INCREMENT  8.900E-03
 
	UNSYMMETRIC DIRECT SPARSE SOLVER RUNNING ON
 	1 HOST:        1 MPI RANK  x 7 THREADS, 1 GPU PER RANK
 	NUMBER OF EQUATIONS:     72
 	NUMBER OF RHS:           1
 	NUMBER OF FLOPS:         2.893e+04

     CHECK POINT   START OF SOLVER    

     CHECK POINT  END OF SOLVER       

       ELAPSED USER TIME (SEC)      =   0.0000    
       ELAPSED SYSTEM TIME (SEC)    =   0.0000    
       ELAPSED TOTAL CPU TIME (SEC) =   0.0000    
       ELAPSED WALLCLOCK TIME (SEC) =          1

               CONVERGENCE CHECKS FOR EQUILIBRIUM ITERATION     1


 AVERAGE FORCE                       77.4       TIME AVG. FORCE        40.3    
 LARGEST RESIDUAL FORCE             1.131E-09   AT NODE         34   DOF  2
   INSTANCE: Part Instance                                                                   
 LARGEST INCREMENT OF DISP.         1.188E-04   AT NODE         33   DOF  2
   INSTANCE: Part Instance                                                                   
 LARGEST CORRECTION TO DISP.        1.412E-09   AT NODE         32   DOF  2
   INSTANCE: Part Instance                                                                   
          THE FORCE     EQUILIBRIUM RESPONSE WAS LINEAR IN THIS INCREMENT

 ITERATION SUMMARY FOR THE INCREMENT:   1 TOTAL ITERATIONS, OF WHICH
   0 ARE SEVERE DISCONTINUITY ITERATIONS AND  1 ARE EQUILIBRIUM ITERATIONS.

 TIME INCREMENT COMPLETED  8.900E-03,  FRACTION OF STEP COMPLETED  0.205    
 STEP TIME COMPLETED       0.205    ,  TOTAL TIME COMPLETED        0.205    


  INCREMENT    24 STARTS. ATTEMPT NUMBER  1, TIME INCREMENT  8.900E-03
 
	UNSYMMETRIC DIRECT SPARSE SOLVER RUNNING ON
 	1 HOST:        1 MPI RANK  x 7 THREADS, 1 GPU PER RANK
 	NUMBER OF EQUATIONS:     72
 	NUMBER OF RHS:           1
 	NUMBER OF FLOPS:         2.893e+04

     CHECK POINT   START OF SOLVER    

     CHECK POINT  END OF SOLVER       

       ELAPSED USER TIME (SEC)      =   0.0000    
       ELAPSED SYSTEM TIME (SEC)    =   0.0000    
       ELAPSED TOTAL CPU TIME (SEC) =   0.0000    
       ELAPSED WALLCLOCK TIME (SEC) =          0

               CONVERGENCE CHECKS FOR EQUILIBRIUM ITERATION     1


 AVERAGE FORCE                       80.8       TIME AVG. FORCE        42.0    
 LARGEST RESIDUAL FORCE             1.131E-09   AT NODE         32   DOF  2
   INSTANCE: Part Instance                                                                   
 LARGEST INCREMENT OF DISP.         1.188E-04   AT NODE         34   DOF  2
   INSTANCE: Part Instance                                                                   
 LARGEST CORRECTION TO DISP.        1.412E-09   AT NODE         36   DOF  2
   INSTANCE: Part Instance                                                                   
          THE FORCE     EQUILIBRIUM RESPONSE WAS LINEAR IN THIS INCREMENT

 ITERATION SUMMARY FOR THE INCREMENT:   1 TOTAL ITERATIONS, OF WHICH
   0 ARE SEVERE DISCONTINUITY ITERATIONS AND  1 ARE EQUILIBRIUM ITERATIONS.

 TIME INCREMENT COMPLETED  8.900E-03,  FRACTION OF STEP COMPLETED  0.214    
 STEP TIME COMPLETED       0.214    ,  TOTAL TIME COMPLETED        0.214    


  INCREMENT    25 STARTS. ATTEMPT NUMBER  1, TIME INCREMENT  8.900E-03
 
	UNSYMMETRIC DIRECT SPARSE SOLVER RUNNING ON
 	1 HOST:        1 MPI RANK  x 7 THREADS, 1 GPU PER RANK
 	NUMBER OF EQUATIONS:     72
 	NUMBER OF RHS:           1
 	NUMBER OF FLOPS:         2.893e+04

     CHECK POINT   START OF SOLVER    

     CHECK POINT  END OF SOLVER       

       ELAPSED USER TIME (SEC)      =   0.0000    
       ELAPSED SYSTEM TIME (SEC)    =   0.0000    
       ELAPSED TOTAL CPU TIME (SEC) =   0.0000    
       ELAPSED WALLCLOCK TIME (SEC) =          0

               CONVERGENCE CHECKS FOR EQUILIBRIUM ITERATION     1


 AVERAGE FORCE                       84.2       TIME AVG. FORCE        43.7    
 LARGEST RESIDUAL FORCE             1.131E-09   AT NODE         35   DOF  2
   INSTANCE: Part Instance                                                                   
 LARGEST INCREMENT OF DISP.         1.188E-04   AT NODE         31   DOF  2
   INSTANCE: Part Instance                                                                   
 LARGEST CORRECTION TO DISP.        1.412E-09   AT NODE         31   DOF  2
   INSTANCE: Part Instance                                                                   
          THE FORCE     EQUILIBRIUM RESPONSE WAS LINEAR IN THIS INCREMENT

 ITERATION SUMMARY FOR THE INCREMENT:   1 TOTAL ITERATIONS, OF WHICH
   0 ARE SEVERE DISCONTINUITY ITERATIONS AND  1 ARE EQUILIBRIUM ITERATIONS.

 TIME INCREMENT COMPLETED  8.900E-03,  FRACTION OF STEP COMPLETED  0.222    
 STEP TIME COMPLETED       0.222    ,  TOTAL TIME COMPLETED        0.222    


  INCREMENT    26 STARTS. ATTEMPT NUMBER  1, TIME INCREMENT  8.900E-03
 
	UNSYMMETRIC DIRECT SPARSE SOLVER RUNNING ON
 	1 HOST:        1 MPI RANK  x 7 THREADS, 1 GPU PER RANK
 	NUMBER OF EQUATIONS:     72
 	NUMBER OF RHS:           1
 	NUMBER OF FLOPS:         2.893e+04

     CHECK POINT   START OF SOLVER    

     CHECK POINT  END OF SOLVER       

       ELAPSED USER TIME (SEC)      =   0.0000    
       ELAPSED SYSTEM TIME (SEC)    =   0.0000    
       ELAPSED TOTAL CPU TIME (SEC) =   0.0000    
       ELAPSED WALLCLOCK TIME (SEC) =          0

               CONVERGENCE CHECKS FOR EQUILIBRIUM ITERATION     1


 AVERAGE FORCE                       87.5       TIME AVG. FORCE        45.4    
 LARGEST RESIDUAL FORCE             1.131E-09   AT NODE         33   DOF  2
   INSTANCE: Part Instance                                                                   
 LARGEST INCREMENT OF DISP.         1.188E-04   AT NODE         36   DOF  2
   INSTANCE: Part Instance                                                                   
 LARGEST CORRECTION TO DISP.        1.412E-09   AT NODE         36   DOF  2
   INSTANCE: Part Instance                                                                   
          THE FORCE     EQUILIBRIUM RESPONSE WAS LINEAR IN THIS INCREMENT

 ITERATION SUMMARY FOR THE INCREMENT:   1 TOTAL ITERATIONS, OF WHICH
   0 ARE SEVERE DISCONTINUITY ITERATIONS AND  1 ARE EQUILIBRIUM ITERATIONS.

 TIME INCREMENT COMPLETED  8.900E-03,  FRACTION OF STEP COMPLETED  0.231    
 STEP TIME COMPLETED       0.231    ,  TOTAL TIME COMPLETED        0.231    


  INCREMENT    27 STARTS. ATTEMPT NUMBER  1, TIME INCREMENT  8.900E-03
 
	UNSYMMETRIC DIRECT SPARSE SOLVER RUNNING ON
 	1 HOST:        1 MPI RANK  x 7 THREADS, 1 GPU PER RANK
 	NUMBER OF EQUATIONS:     72
 	NUMBER OF RHS:           1
 	NUMBER OF FLOPS:         2.893e+04

     CHECK POINT   START OF SOLVER    

     CHECK POINT  END OF SOLVER       

       ELAPSED USER TIME (SEC)      =  0.10000    
       ELAPSED SYSTEM TIME (SEC)    =   0.0000    
       ELAPSED TOTAL CPU TIME (SEC) =  0.10000    
       ELAPSED WALLCLOCK TIME (SEC) =          0

               CONVERGENCE CHECKS FOR EQUILIBRIUM ITERATION     1


 AVERAGE FORCE                       90.9       TIME AVG. FORCE        47.1    
 LARGEST RESIDUAL FORCE             1.131E-09   AT NODE         32   DOF  2
   INSTANCE: Part Instance                                                                   
 LARGEST INCREMENT OF DISP.         1.188E-04   AT NODE         36   DOF  2
   INSTANCE: Part Instance                                                                   
 LARGEST CORRECTION TO DISP.        1.412E-09   AT NODE         36   DOF  2
   INSTANCE: Part Instance                                                                   
          THE FORCE     EQUILIBRIUM RESPONSE WAS LINEAR IN THIS INCREMENT

 ITERATION SUMMARY FOR THE INCREMENT:   1 TOTAL ITERATIONS, OF WHICH
   0 ARE SEVERE DISCONTINUITY ITERATIONS AND  1 ARE EQUILIBRIUM ITERATIONS.

 TIME INCREMENT COMPLETED  8.900E-03,  FRACTION OF STEP COMPLETED  0.240    
 STEP TIME COMPLETED       0.240    ,  TOTAL TIME COMPLETED        0.240    


  INCREMENT    28 STARTS. ATTEMPT NUMBER  1, TIME INCREMENT  8.900E-03
 
	UNSYMMETRIC DIRECT SPARSE SOLVER RUNNING ON
 	1 HOST:        1 MPI RANK  x 7 THREADS, 1 GPU PER RANK
 	NUMBER OF EQUATIONS:     72
 	NUMBER OF RHS:           1
 	NUMBER OF FLOPS:         2.893e+04

     CHECK POINT   START OF SOLVER    

     CHECK POINT  END OF SOLVER       

       ELAPSED USER TIME (SEC)      =   0.0000    
       ELAPSED SYSTEM TIME (SEC)    =   0.0000    
       ELAPSED TOTAL CPU TIME (SEC) =   0.0000    
       ELAPSED WALLCLOCK TIME (SEC) =          0

               CONVERGENCE CHECKS FOR EQUILIBRIUM ITERATION     1


 AVERAGE FORCE                       94.3       TIME AVG. FORCE        48.8    
 LARGEST RESIDUAL FORCE             1.130E-09   AT NODE         35   DOF  2
   INSTANCE: Part Instance                                                                   
 LARGEST INCREMENT OF DISP.         1.188E-04   AT NODE         31   DOF  2
   INSTANCE: Part Instance                                                                   
 LARGEST CORRECTION TO DISP.        1.412E-09   AT NODE         31   DOF  2
   INSTANCE: Part Instance                                                                   
          THE FORCE     EQUILIBRIUM RESPONSE WAS LINEAR IN THIS INCREMENT

 ITERATION SUMMARY FOR THE INCREMENT:   1 TOTAL ITERATIONS, OF WHICH
   0 ARE SEVERE DISCONTINUITY ITERATIONS AND  1 ARE EQUILIBRIUM ITERATIONS.

 TIME INCREMENT COMPLETED  8.900E-03,  FRACTION OF STEP COMPLETED  0.249    
 STEP TIME COMPLETED       0.249    ,  TOTAL TIME COMPLETED        0.249    


  INCREMENT    29 STARTS. ATTEMPT NUMBER  1, TIME INCREMENT  8.900E-03
 
	UNSYMMETRIC DIRECT SPARSE SOLVER RUNNING ON
 	1 HOST:        1 MPI RANK  x 7 THREADS, 1 GPU PER RANK
 	NUMBER OF EQUATIONS:     72
 	NUMBER OF RHS:           1
 	NUMBER OF FLOPS:         2.893e+04

     CHECK POINT   START OF SOLVER    

     CHECK POINT  END OF SOLVER       

       ELAPSED USER TIME (SEC)      =  0.10000    
       ELAPSED SYSTEM TIME (SEC)    =   0.0000    
       ELAPSED TOTAL CPU TIME (SEC) =  0.10000    
       ELAPSED WALLCLOCK TIME (SEC) =          0

               CONVERGENCE CHECKS FOR EQUILIBRIUM ITERATION     1


 AVERAGE FORCE                       97.6       TIME AVG. FORCE        50.5    
 LARGEST RESIDUAL FORCE             1.131E-09   AT NODE         32   DOF  2
   INSTANCE: Part Instance                                                                   
 LARGEST INCREMENT OF DISP.         1.188E-04   AT NODE         36   DOF  2
   INSTANCE: Part Instance                                                                   
 LARGEST CORRECTION TO DISP.        1.412E-09   AT NODE         36   DOF  2
   INSTANCE: Part Instance                                                                   
          THE FORCE     EQUILIBRIUM RESPONSE WAS LINEAR IN THIS INCREMENT

 ITERATION SUMMARY FOR THE INCREMENT:   1 TOTAL ITERATIONS, OF WHICH
   0 ARE SEVERE DISCONTINUITY ITERATIONS AND  1 ARE EQUILIBRIUM ITERATIONS.

 TIME INCREMENT COMPLETED  8.900E-03,  FRACTION OF STEP COMPLETED  0.258    
 STEP TIME COMPLETED       0.258    ,  TOTAL TIME COMPLETED        0.258    


  INCREMENT    30 STARTS. ATTEMPT NUMBER  1, TIME INCREMENT  8.900E-03
 
	UNSYMMETRIC DIRECT SPARSE SOLVER RUNNING ON
 	1 HOST:        1 MPI RANK  x 7 THREADS, 1 GPU PER RANK
 	NUMBER OF EQUATIONS:     72
 	NUMBER OF RHS:           1
 	NUMBER OF FLOPS:         2.893e+04

     CHECK POINT   START OF SOLVER    

     CHECK POINT  END OF SOLVER       

       ELAPSED USER TIME (SEC)      =   0.0000    
       ELAPSED SYSTEM TIME (SEC)    =   0.0000    
       ELAPSED TOTAL CPU TIME (SEC) =   0.0000    
       ELAPSED WALLCLOCK TIME (SEC) =          0

               CONVERGENCE CHECKS FOR EQUILIBRIUM ITERATION     1


 AVERAGE FORCE                       101.       TIME AVG. FORCE        52.1    
 LARGEST RESIDUAL FORCE             1.131E-09   AT NODE         32   DOF  2
   INSTANCE: Part Instance                                                                   
 LARGEST INCREMENT OF DISP.         1.188E-04   AT NODE         36   DOF  2
   INSTANCE: Part Instance                                                                   
 LARGEST CORRECTION TO DISP.        1.412E-09   AT NODE         31   DOF  2
   INSTANCE: Part Instance                                                                   
          THE FORCE     EQUILIBRIUM RESPONSE WAS LINEAR IN THIS INCREMENT

 ITERATION SUMMARY FOR THE INCREMENT:   1 TOTAL ITERATIONS, OF WHICH
   0 ARE SEVERE DISCONTINUITY ITERATIONS AND  1 ARE EQUILIBRIUM ITERATIONS.

 TIME INCREMENT COMPLETED  8.900E-03,  FRACTION OF STEP COMPLETED  0.267    
 STEP TIME COMPLETED       0.267    ,  TOTAL TIME COMPLETED        0.267    


  INCREMENT    31 STARTS. ATTEMPT NUMBER  1, TIME INCREMENT  8.900E-03
 
	UNSYMMETRIC DIRECT SPARSE SOLVER RUNNING ON
 	1 HOST:        1 MPI RANK  x 7 THREADS, 1 GPU PER RANK
 	NUMBER OF EQUATIONS:     72
 	NUMBER OF RHS:           1
 	NUMBER OF FLOPS:         2.893e+04

     CHECK POINT   START OF SOLVER    

     CHECK POINT  END OF SOLVER       

       ELAPSED USER TIME (SEC)      =  0.10000    
       ELAPSED SYSTEM TIME (SEC)    =   0.0000    
       ELAPSED TOTAL CPU TIME (SEC) =  0.10000    
       ELAPSED WALLCLOCK TIME (SEC) =          1

               CONVERGENCE CHECKS FOR EQUILIBRIUM ITERATION     1


 AVERAGE FORCE                       104.       TIME AVG. FORCE        53.8    
 LARGEST RESIDUAL FORCE             1.131E-09   AT NODE         33   DOF  2
   INSTANCE: Part Instance                                                                   
 LARGEST INCREMENT OF DISP.         1.188E-04   AT NODE         32   DOF  2
   INSTANCE: Part Instance                                                                   
 LARGEST CORRECTION TO DISP.        1.412E-09   AT NODE         32   DOF  2
   INSTANCE: Part Instance                                                                   
          THE FORCE     EQUILIBRIUM RESPONSE WAS LINEAR IN THIS INCREMENT

 ITERATION SUMMARY FOR THE INCREMENT:   1 TOTAL ITERATIONS, OF WHICH
   0 ARE SEVERE DISCONTINUITY ITERATIONS AND  1 ARE EQUILIBRIUM ITERATIONS.

 TIME INCREMENT COMPLETED  8.900E-03,  FRACTION OF STEP COMPLETED  0.276    
 STEP TIME COMPLETED       0.276    ,  TOTAL TIME COMPLETED        0.276    


  INCREMENT    32 STARTS. ATTEMPT NUMBER  1, TIME INCREMENT  8.900E-03
 
	UNSYMMETRIC DIRECT SPARSE SOLVER RUNNING ON
 	1 HOST:        1 MPI RANK  x 7 THREADS, 1 GPU PER RANK
 	NUMBER OF EQUATIONS:     72
 	NUMBER OF RHS:           1
 	NUMBER OF FLOPS:         2.893e+04

     CHECK POINT   START OF SOLVER    

     CHECK POINT  END OF SOLVER       

       ELAPSED USER TIME (SEC)      =   0.0000    
       ELAPSED SYSTEM TIME (SEC)    =   0.0000    
       ELAPSED TOTAL CPU TIME (SEC) =   0.0000    
       ELAPSED WALLCLOCK TIME (SEC) =          0

               CONVERGENCE CHECKS FOR EQUILIBRIUM ITERATION     1


 AVERAGE FORCE                       108.       TIME AVG. FORCE        55.5    
 LARGEST RESIDUAL FORCE             1.131E-09   AT NODE         32   DOF  2
   INSTANCE: Part Instance                                                                   
 LARGEST INCREMENT OF DISP.         1.188E-04   AT NODE         36   DOF  2
   INSTANCE: Part Instance                                                                   
 LARGEST CORRECTION TO DISP.        1.412E-09   AT NODE         36   DOF  2
   INSTANCE: Part Instance                                                                   
          THE FORCE     EQUILIBRIUM RESPONSE WAS LINEAR IN THIS INCREMENT

 ITERATION SUMMARY FOR THE INCREMENT:   1 TOTAL ITERATIONS, OF WHICH
   0 ARE SEVERE DISCONTINUITY ITERATIONS AND  1 ARE EQUILIBRIUM ITERATIONS.

 TIME INCREMENT COMPLETED  8.900E-03,  FRACTION OF STEP COMPLETED  0.285    
 STEP TIME COMPLETED       0.285    ,  TOTAL TIME COMPLETED        0.285    


  INCREMENT    33 STARTS. ATTEMPT NUMBER  1, TIME INCREMENT  8.900E-03
 
	UNSYMMETRIC DIRECT SPARSE SOLVER RUNNING ON
 	1 HOST:        1 MPI RANK  x 7 THREADS, 1 GPU PER RANK
 	NUMBER OF EQUATIONS:     72
 	NUMBER OF RHS:           1
 	NUMBER OF FLOPS:         2.893e+04

     CHECK POINT   START OF SOLVER    

     CHECK POINT  END OF SOLVER       

       ELAPSED USER TIME (SEC)      =  0.10000    
       ELAPSED SYSTEM TIME (SEC)    =   0.0000    
       ELAPSED TOTAL CPU TIME (SEC) =  0.10000    
       ELAPSED WALLCLOCK TIME (SEC) =          0

               CONVERGENCE CHECKS FOR EQUILIBRIUM ITERATION     1


 AVERAGE FORCE                       111.       TIME AVG. FORCE        57.2    
 LARGEST RESIDUAL FORCE             1.131E-09   AT NODE         35   DOF  2
   INSTANCE: Part Instance                                                                   
 LARGEST INCREMENT OF DISP.         1.188E-04   AT NODE         33   DOF  2
   INSTANCE: Part Instance                                                                   
 LARGEST CORRECTION TO DISP.        1.412E-09   AT NODE         33   DOF  2
   INSTANCE: Part Instance                                                                   
          THE FORCE     EQUILIBRIUM RESPONSE WAS LINEAR IN THIS INCREMENT

 ITERATION SUMMARY FOR THE INCREMENT:   1 TOTAL ITERATIONS, OF WHICH
   0 ARE SEVERE DISCONTINUITY ITERATIONS AND  1 ARE EQUILIBRIUM ITERATIONS.

 TIME INCREMENT COMPLETED  8.900E-03,  FRACTION OF STEP COMPLETED  0.294    
 STEP TIME COMPLETED       0.294    ,  TOTAL TIME COMPLETED        0.294    


  INCREMENT    34 STARTS. ATTEMPT NUMBER  1, TIME INCREMENT  8.900E-03
 
	UNSYMMETRIC DIRECT SPARSE SOLVER RUNNING ON
 	1 HOST:        1 MPI RANK  x 7 THREADS, 1 GPU PER RANK
 	NUMBER OF EQUATIONS:     72
 	NUMBER OF RHS:           1
 	NUMBER OF FLOPS:         2.893e+04

     CHECK POINT   START OF SOLVER    

     CHECK POINT  END OF SOLVER       

       ELAPSED USER TIME (SEC)      =  0.10000    
       ELAPSED SYSTEM TIME (SEC)    =   0.0000    
       ELAPSED TOTAL CPU TIME (SEC) =  0.10000    
       ELAPSED WALLCLOCK TIME (SEC) =          0

               CONVERGENCE CHECKS FOR EQUILIBRIUM ITERATION     1


 AVERAGE FORCE                       114.       TIME AVG. FORCE        58.9    
 LARGEST RESIDUAL FORCE             1.131E-09   AT NODE         33   DOF  2
   INSTANCE: Part Instance                                                                   
 LARGEST INCREMENT OF DISP.         1.188E-04   AT NODE         36   DOF  2
   INSTANCE: Part Instance                                                                   
 LARGEST CORRECTION TO DISP.        1.412E-09   AT NODE         36   DOF  2
   INSTANCE: Part Instance                                                                   
          THE FORCE     EQUILIBRIUM RESPONSE WAS LINEAR IN THIS INCREMENT

 ITERATION SUMMARY FOR THE INCREMENT:   1 TOTAL ITERATIONS, OF WHICH
   0 ARE SEVERE DISCONTINUITY ITERATIONS AND  1 ARE EQUILIBRIUM ITERATIONS.

 TIME INCREMENT COMPLETED  8.900E-03,  FRACTION OF STEP COMPLETED  0.303    
 STEP TIME COMPLETED       0.303    ,  TOTAL TIME COMPLETED        0.303    


  INCREMENT    35 STARTS. ATTEMPT NUMBER  1, TIME INCREMENT  8.900E-03
 
	UNSYMMETRIC DIRECT SPARSE SOLVER RUNNING ON
 	1 HOST:        1 MPI RANK  x 7 THREADS, 1 GPU PER RANK
 	NUMBER OF EQUATIONS:     72
 	NUMBER OF RHS:           1
 	NUMBER OF FLOPS:         2.893e+04

     CHECK POINT   START OF SOLVER    

     CHECK POINT  END OF SOLVER       

       ELAPSED USER TIME (SEC)      =  0.10000    
       ELAPSED SYSTEM TIME (SEC)    =   0.0000    
       ELAPSED TOTAL CPU TIME (SEC) =  0.10000    
       ELAPSED WALLCLOCK TIME (SEC) =          0

               CONVERGENCE CHECKS FOR EQUILIBRIUM ITERATION     1


 AVERAGE FORCE                       118.       TIME AVG. FORCE        60.6    
 LARGEST RESIDUAL FORCE             1.131E-09   AT NODE         33   DOF  2
   INSTANCE: Part Instance                                                                   
 LARGEST INCREMENT OF DISP.         1.189E-04   AT NODE         36   DOF  2
   INSTANCE: Part Instance                                                                   
 LARGEST CORRECTION TO DISP.        1.412E-09   AT NODE         36   DOF  2
   INSTANCE: Part Instance                                                                   
          THE FORCE     EQUILIBRIUM RESPONSE WAS LINEAR IN THIS INCREMENT

 ITERATION SUMMARY FOR THE INCREMENT:   1 TOTAL ITERATIONS, OF WHICH
   0 ARE SEVERE DISCONTINUITY ITERATIONS AND  1 ARE EQUILIBRIUM ITERATIONS.

 TIME INCREMENT COMPLETED  8.900E-03,  FRACTION OF STEP COMPLETED  0.312    
 STEP TIME COMPLETED       0.312    ,  TOTAL TIME COMPLETED        0.312    


  INCREMENT    36 STARTS. ATTEMPT NUMBER  1, TIME INCREMENT  8.900E-03
 
	UNSYMMETRIC DIRECT SPARSE SOLVER RUNNING ON
 	1 HOST:        1 MPI RANK  x 7 THREADS, 1 GPU PER RANK
 	NUMBER OF EQUATIONS:     72
 	NUMBER OF RHS:           1
 	NUMBER OF FLOPS:         2.893e+04

     CHECK POINT   START OF SOLVER    

     CHECK POINT  END OF SOLVER       

       ELAPSED USER TIME (SEC)      =   0.0000    
       ELAPSED SYSTEM TIME (SEC)    =   0.0000    
       ELAPSED TOTAL CPU TIME (SEC) =   0.0000    
       ELAPSED WALLCLOCK TIME (SEC) =          0

               CONVERGENCE CHECKS FOR EQUILIBRIUM ITERATION     1


 AVERAGE FORCE                       121.       TIME AVG. FORCE        62.2    
 LARGEST RESIDUAL FORCE             1.131E-09   AT NODE         35   DOF  2
   INSTANCE: Part Instance                                                                   
 LARGEST INCREMENT OF DISP.         1.189E-04   AT NODE         33   DOF  2
   INSTANCE: Part Instance                                                                   
 LARGEST CORRECTION TO DISP.        1.412E-09   AT NODE         31   DOF  2
   INSTANCE: Part Instance                                                                   
          THE FORCE     EQUILIBRIUM RESPONSE WAS LINEAR IN THIS INCREMENT

 ITERATION SUMMARY FOR THE INCREMENT:   1 TOTAL ITERATIONS, OF WHICH
   0 ARE SEVERE DISCONTINUITY ITERATIONS AND  1 ARE EQUILIBRIUM ITERATIONS.

 TIME INCREMENT COMPLETED  8.900E-03,  FRACTION OF STEP COMPLETED  0.320    
 STEP TIME COMPLETED       0.320    ,  TOTAL TIME COMPLETED        0.320    


  INCREMENT    37 STARTS. ATTEMPT NUMBER  1, TIME INCREMENT  8.900E-03
 
	UNSYMMETRIC DIRECT SPARSE SOLVER RUNNING ON
 	1 HOST:        1 MPI RANK  x 7 THREADS, 1 GPU PER RANK
 	NUMBER OF EQUATIONS:     72
 	NUMBER OF RHS:           1
 	NUMBER OF FLOPS:         2.893e+04

     CHECK POINT   START OF SOLVER    

     CHECK POINT  END OF SOLVER       

       ELAPSED USER TIME (SEC)      =   0.0000    
       ELAPSED SYSTEM TIME (SEC)    =   0.0000    
       ELAPSED TOTAL CPU TIME (SEC) =   0.0000    
       ELAPSED WALLCLOCK TIME (SEC) =          0

               CONVERGENCE CHECKS FOR EQUILIBRIUM ITERATION     1


 AVERAGE FORCE                       125.       TIME AVG. FORCE        63.9    
 LARGEST RESIDUAL FORCE             1.131E-09   AT NODE         33   DOF  2
   INSTANCE: Part Instance                                                                   
 LARGEST INCREMENT OF DISP.         1.189E-04   AT NODE         31   DOF  2
   INSTANCE: Part Instance                                                                   
 LARGEST CORRECTION TO DISP.        1.412E-09   AT NODE         35   DOF  2
   INSTANCE: Part Instance                                                                   
          THE FORCE     EQUILIBRIUM RESPONSE WAS LINEAR IN THIS INCREMENT

 ITERATION SUMMARY FOR THE INCREMENT:   1 TOTAL ITERATIONS, OF WHICH
   0 ARE SEVERE DISCONTINUITY ITERATIONS AND  1 ARE EQUILIBRIUM ITERATIONS.

 TIME INCREMENT COMPLETED  8.900E-03,  FRACTION OF STEP COMPLETED  0.329    
 STEP TIME COMPLETED       0.329    ,  TOTAL TIME COMPLETED        0.329    


  INCREMENT    38 STARTS. ATTEMPT NUMBER  1, TIME INCREMENT  8.900E-03
 
	UNSYMMETRIC DIRECT SPARSE SOLVER RUNNING ON
 	1 HOST:        1 MPI RANK  x 7 THREADS, 1 GPU PER RANK
 	NUMBER OF EQUATIONS:     72
 	NUMBER OF RHS:           1
 	NUMBER OF FLOPS:         2.893e+04

     CHECK POINT   START OF SOLVER    

     CHECK POINT  END OF SOLVER       

       ELAPSED USER TIME (SEC)      =   0.0000    
       ELAPSED SYSTEM TIME (SEC)    =   0.0000    
       ELAPSED TOTAL CPU TIME (SEC) =   0.0000    
       ELAPSED WALLCLOCK TIME (SEC) =          0

               CONVERGENCE CHECKS FOR EQUILIBRIUM ITERATION     1


 AVERAGE FORCE                       128.       TIME AVG. FORCE        65.6    
 LARGEST RESIDUAL FORCE             1.131E-09   AT NODE         33   DOF  2
   INSTANCE: Part Instance                                                                   
 LARGEST INCREMENT OF DISP.         1.189E-04   AT NODE         36   DOF  2
   INSTANCE: Part Instance                                                                   
 LARGEST CORRECTION TO DISP.        1.412E-09   AT NODE         36   DOF  2
   INSTANCE: Part Instance                                                                   
          THE FORCE     EQUILIBRIUM RESPONSE WAS LINEAR IN THIS INCREMENT

 ITERATION SUMMARY FOR THE INCREMENT:   1 TOTAL ITERATIONS, OF WHICH
   0 ARE SEVERE DISCONTINUITY ITERATIONS AND  1 ARE EQUILIBRIUM ITERATIONS.

 TIME INCREMENT COMPLETED  8.900E-03,  FRACTION OF STEP COMPLETED  0.338    
 STEP TIME COMPLETED       0.338    ,  TOTAL TIME COMPLETED        0.338    


  INCREMENT    39 STARTS. ATTEMPT NUMBER  1, TIME INCREMENT  8.900E-03
 
	UNSYMMETRIC DIRECT SPARSE SOLVER RUNNING ON
 	1 HOST:        1 MPI RANK  x 7 THREADS, 1 GPU PER RANK
 	NUMBER OF EQUATIONS:     72
 	NUMBER OF RHS:           1
 	NUMBER OF FLOPS:         2.893e+04

     CHECK POINT   START OF SOLVER    

     CHECK POINT  END OF SOLVER       

       ELAPSED USER TIME (SEC)      =  0.10000    
       ELAPSED SYSTEM TIME (SEC)    =   0.0000    
       ELAPSED TOTAL CPU TIME (SEC) =  0.10000    
       ELAPSED WALLCLOCK TIME (SEC) =          1

               CONVERGENCE CHECKS FOR EQUILIBRIUM ITERATION     1


 AVERAGE FORCE                       131.       TIME AVG. FORCE        67.3    
 LARGEST RESIDUAL FORCE             1.131E-09   AT NODE         34   DOF  2
   INSTANCE: Part Instance                                                                   
 LARGEST INCREMENT OF DISP.         1.189E-04   AT NODE         35   DOF  2
   INSTANCE: Part Instance                                                                   
 LARGEST CORRECTION TO DISP.        1.412E-09   AT NODE         34   DOF  2
   INSTANCE: Part Instance                                                                   
          THE FORCE     EQUILIBRIUM RESPONSE WAS LINEAR IN THIS INCREMENT

 ITERATION SUMMARY FOR THE INCREMENT:   1 TOTAL ITERATIONS, OF WHICH
   0 ARE SEVERE DISCONTINUITY ITERATIONS AND  1 ARE EQUILIBRIUM ITERATIONS.

 TIME INCREMENT COMPLETED  8.900E-03,  FRACTION OF STEP COMPLETED  0.347    
 STEP TIME COMPLETED       0.347    ,  TOTAL TIME COMPLETED        0.347    


  INCREMENT    40 STARTS. ATTEMPT NUMBER  1, TIME INCREMENT  8.900E-03
 
	UNSYMMETRIC DIRECT SPARSE SOLVER RUNNING ON
 	1 HOST:        1 MPI RANK  x 7 THREADS, 1 GPU PER RANK
 	NUMBER OF EQUATIONS:     72
 	NUMBER OF RHS:           1
 	NUMBER OF FLOPS:         2.893e+04

     CHECK POINT   START OF SOLVER    

     CHECK POINT  END OF SOLVER       

       ELAPSED USER TIME (SEC)      =  0.10000    
       ELAPSED SYSTEM TIME (SEC)    =   0.0000    
       ELAPSED TOTAL CPU TIME (SEC) =  0.10000    
       ELAPSED WALLCLOCK TIME (SEC) =          0

               CONVERGENCE CHECKS FOR EQUILIBRIUM ITERATION     1


 AVERAGE FORCE                       135.       TIME AVG. FORCE        69.0    
 LARGEST RESIDUAL FORCE             1.131E-09   AT NODE         32   DOF  2
   INSTANCE: Part Instance                                                                   
 LARGEST INCREMENT OF DISP.         1.189E-04   AT NODE         34   DOF  2
   INSTANCE: Part Instance                                                                   
 LARGEST CORRECTION TO DISP.        1.412E-09   AT NODE         36   DOF  2
   INSTANCE: Part Instance                                                                   
          THE FORCE     EQUILIBRIUM RESPONSE WAS LINEAR IN THIS INCREMENT

 ITERATION SUMMARY FOR THE INCREMENT:   1 TOTAL ITERATIONS, OF WHICH
   0 ARE SEVERE DISCONTINUITY ITERATIONS AND  1 ARE EQUILIBRIUM ITERATIONS.

 TIME INCREMENT COMPLETED  8.900E-03,  FRACTION OF STEP COMPLETED  0.356    
 STEP TIME COMPLETED       0.356    ,  TOTAL TIME COMPLETED        0.356    


  INCREMENT    41 STARTS. ATTEMPT NUMBER  1, TIME INCREMENT  8.900E-03
 
	UNSYMMETRIC DIRECT SPARSE SOLVER RUNNING ON
 	1 HOST:        1 MPI RANK  x 7 THREADS, 1 GPU PER RANK
 	NUMBER OF EQUATIONS:     72
 	NUMBER OF RHS:           1
 	NUMBER OF FLOPS:         2.893e+04

     CHECK POINT   START OF SOLVER    

     CHECK POINT  END OF SOLVER       

       ELAPSED USER TIME (SEC)      =  0.10000    
       ELAPSED SYSTEM TIME (SEC)    =   0.0000    
       ELAPSED TOTAL CPU TIME (SEC) =  0.10000    
       ELAPSED WALLCLOCK TIME (SEC) =          0

               CONVERGENCE CHECKS FOR EQUILIBRIUM ITERATION     1


 AVERAGE FORCE                       138.       TIME AVG. FORCE        70.7    
 LARGEST RESIDUAL FORCE             1.131E-09   AT NODE         34   DOF  2
   INSTANCE: Part Instance                                                                   
 LARGEST INCREMENT OF DISP.         1.189E-04   AT NODE         36   DOF  2
   INSTANCE: Part Instance                                                                   
 LARGEST CORRECTION TO DISP.        1.412E-09   AT NODE         31   DOF  2
   INSTANCE: Part Instance                                                                   
          THE FORCE     EQUILIBRIUM RESPONSE WAS LINEAR IN THIS INCREMENT

 ITERATION SUMMARY FOR THE INCREMENT:   1 TOTAL ITERATIONS, OF WHICH
   0 ARE SEVERE DISCONTINUITY ITERATIONS AND  1 ARE EQUILIBRIUM ITERATIONS.

 TIME INCREMENT COMPLETED  8.900E-03,  FRACTION OF STEP COMPLETED  0.365    
 STEP TIME COMPLETED       0.365    ,  TOTAL TIME COMPLETED        0.365    


  INCREMENT    42 STARTS. ATTEMPT NUMBER  1, TIME INCREMENT  8.900E-03
 
	UNSYMMETRIC DIRECT SPARSE SOLVER RUNNING ON
 	1 HOST:        1 MPI RANK  x 7 THREADS, 1 GPU PER RANK
 	NUMBER OF EQUATIONS:     72
 	NUMBER OF RHS:           1
 	NUMBER OF FLOPS:         2.893e+04

     CHECK POINT   START OF SOLVER    

     CHECK POINT  END OF SOLVER       

       ELAPSED USER TIME (SEC)      =  0.10000    
       ELAPSED SYSTEM TIME (SEC)    =   0.0000    
       ELAPSED TOTAL CPU TIME (SEC) =  0.10000    
       ELAPSED WALLCLOCK TIME (SEC) =          0

               CONVERGENCE CHECKS FOR EQUILIBRIUM ITERATION     1


 AVERAGE FORCE                       141.       TIME AVG. FORCE        72.3    
 LARGEST RESIDUAL FORCE             1.131E-09   AT NODE         33   DOF  2
   INSTANCE: Part Instance                                                                   
 LARGEST INCREMENT OF DISP.         1.189E-04   AT NODE         34   DOF  2
   INSTANCE: Part Instance                                                                   
 LARGEST CORRECTION TO DISP.        1.412E-09   AT NODE         34   DOF  2
   INSTANCE: Part Instance                                                                   
          THE FORCE     EQUILIBRIUM RESPONSE WAS LINEAR IN THIS INCREMENT

 ITERATION SUMMARY FOR THE INCREMENT:   1 TOTAL ITERATIONS, OF WHICH
   0 ARE SEVERE DISCONTINUITY ITERATIONS AND  1 ARE EQUILIBRIUM ITERATIONS.

 TIME INCREMENT COMPLETED  8.900E-03,  FRACTION OF STEP COMPLETED  0.374    
 STEP TIME COMPLETED       0.374    ,  TOTAL TIME COMPLETED        0.374    


  INCREMENT    43 STARTS. ATTEMPT NUMBER  1, TIME INCREMENT  8.900E-03
 
	UNSYMMETRIC DIRECT SPARSE SOLVER RUNNING ON
 	1 HOST:        1 MPI RANK  x 7 THREADS, 1 GPU PER RANK
 	NUMBER OF EQUATIONS:     72
 	NUMBER OF RHS:           1
 	NUMBER OF FLOPS:         2.893e+04

     CHECK POINT   START OF SOLVER    

     CHECK POINT  END OF SOLVER       

       ELAPSED USER TIME (SEC)      =   0.0000    
       ELAPSED SYSTEM TIME (SEC)    =  0.10000    
       ELAPSED TOTAL CPU TIME (SEC) =  0.10000    
       ELAPSED WALLCLOCK TIME (SEC) =          0

               CONVERGENCE CHECKS FOR EQUILIBRIUM ITERATION     1


 AVERAGE FORCE                       145.       TIME AVG. FORCE        74.0    
 LARGEST RESIDUAL FORCE             1.131E-09   AT NODE         34   DOF  2
   INSTANCE: Part Instance                                                                   
 LARGEST INCREMENT OF DISP.         1.189E-04   AT NODE         36   DOF  2
   INSTANCE: Part Instance                                                                   
 LARGEST CORRECTION TO DISP.        1.412E-09   AT NODE         36   DOF  2
   INSTANCE: Part Instance                                                                   
          THE FORCE     EQUILIBRIUM RESPONSE WAS LINEAR IN THIS INCREMENT

 ITERATION SUMMARY FOR THE INCREMENT:   1 TOTAL ITERATIONS, OF WHICH
   0 ARE SEVERE DISCONTINUITY ITERATIONS AND  1 ARE EQUILIBRIUM ITERATIONS.

 TIME INCREMENT COMPLETED  8.900E-03,  FRACTION OF STEP COMPLETED  0.383    
 STEP TIME COMPLETED       0.383    ,  TOTAL TIME COMPLETED        0.383    


  INCREMENT    44 STARTS. ATTEMPT NUMBER  1, TIME INCREMENT  8.900E-03
 
	UNSYMMETRIC DIRECT SPARSE SOLVER RUNNING ON
 	1 HOST:        1 MPI RANK  x 7 THREADS, 1 GPU PER RANK
 	NUMBER OF EQUATIONS:     72
 	NUMBER OF RHS:           1
 	NUMBER OF FLOPS:         2.893e+04

     CHECK POINT   START OF SOLVER    

     CHECK POINT  END OF SOLVER       

       ELAPSED USER TIME (SEC)      =   0.0000    
       ELAPSED SYSTEM TIME (SEC)    =   0.0000    
       ELAPSED TOTAL CPU TIME (SEC) =   0.0000    
       ELAPSED WALLCLOCK TIME (SEC) =          0

               CONVERGENCE CHECKS FOR EQUILIBRIUM ITERATION     1


 AVERAGE FORCE                       148.       TIME AVG. FORCE        75.7    
 LARGEST RESIDUAL FORCE             1.131E-09   AT NODE         33   DOF  2
   INSTANCE: Part Instance                                                                   
 LARGEST INCREMENT OF DISP.         1.189E-04   AT NODE         34   DOF  2
   INSTANCE: Part Instance                                                                   
 LARGEST CORRECTION TO DISP.        1.412E-09   AT NODE         34   DOF  2
   INSTANCE: Part Instance                                                                   
          THE FORCE     EQUILIBRIUM RESPONSE WAS LINEAR IN THIS INCREMENT

 ITERATION SUMMARY FOR THE INCREMENT:   1 TOTAL ITERATIONS, OF WHICH
   0 ARE SEVERE DISCONTINUITY ITERATIONS AND  1 ARE EQUILIBRIUM ITERATIONS.

 TIME INCREMENT COMPLETED  8.900E-03,  FRACTION OF STEP COMPLETED  0.392    
 STEP TIME COMPLETED       0.392    ,  TOTAL TIME COMPLETED        0.392    


  INCREMENT    45 STARTS. ATTEMPT NUMBER  1, TIME INCREMENT  8.900E-03
 
	UNSYMMETRIC DIRECT SPARSE SOLVER RUNNING ON
 	1 HOST:        1 MPI RANK  x 7 THREADS, 1 GPU PER RANK
 	NUMBER OF EQUATIONS:     72
 	NUMBER OF RHS:           1
 	NUMBER OF FLOPS:         2.893e+04

     CHECK POINT   START OF SOLVER    

     CHECK POINT  END OF SOLVER       

       ELAPSED USER TIME (SEC)      =  0.10000    
       ELAPSED SYSTEM TIME (SEC)    =   0.0000    
       ELAPSED TOTAL CPU TIME (SEC) =  0.10000    
       ELAPSED WALLCLOCK TIME (SEC) =          0

               CONVERGENCE CHECKS FOR EQUILIBRIUM ITERATION     1


 AVERAGE FORCE                       152.       TIME AVG. FORCE        77.4    
 LARGEST RESIDUAL FORCE             1.131E-09   AT NODE         34   DOF  2
   INSTANCE: Part Instance                                                                   
 LARGEST INCREMENT OF DISP.         1.189E-04   AT NODE         31   DOF  2
   INSTANCE: Part Instance                                                                   
 LARGEST CORRECTION TO DISP.        1.412E-09   AT NODE         36   DOF  2
   INSTANCE: Part Instance                                                                   
          THE FORCE     EQUILIBRIUM RESPONSE WAS LINEAR IN THIS INCREMENT

 ITERATION SUMMARY FOR THE INCREMENT:   1 TOTAL ITERATIONS, OF WHICH
   0 ARE SEVERE DISCONTINUITY ITERATIONS AND  1 ARE EQUILIBRIUM ITERATIONS.

 TIME INCREMENT COMPLETED  8.900E-03,  FRACTION OF STEP COMPLETED  0.401    
 STEP TIME COMPLETED       0.401    ,  TOTAL TIME COMPLETED        0.401    


  INCREMENT    46 STARTS. ATTEMPT NUMBER  1, TIME INCREMENT  8.900E-03
 
	UNSYMMETRIC DIRECT SPARSE SOLVER RUNNING ON
 	1 HOST:        1 MPI RANK  x 7 THREADS, 1 GPU PER RANK
 	NUMBER OF EQUATIONS:     72
 	NUMBER OF RHS:           1
 	NUMBER OF FLOPS:         2.893e+04

     CHECK POINT   START OF SOLVER    

     CHECK POINT  END OF SOLVER       

       ELAPSED USER TIME (SEC)      =   0.0000    
       ELAPSED SYSTEM TIME (SEC)    =   0.0000    
       ELAPSED TOTAL CPU TIME (SEC) =   0.0000    
       ELAPSED WALLCLOCK TIME (SEC) =          0

               CONVERGENCE CHECKS FOR EQUILIBRIUM ITERATION     1


 AVERAGE FORCE                       155.       TIME AVG. FORCE        79.1    
 LARGEST RESIDUAL FORCE             1.131E-09   AT NODE         34   DOF  2
   INSTANCE: Part Instance                                                                   
 LARGEST INCREMENT OF DISP.         1.189E-04   AT NODE         34   DOF  2
   INSTANCE: Part Instance                                                                   
 LARGEST CORRECTION TO DISP.        1.412E-09   AT NODE         34   DOF  2
   INSTANCE: Part Instance                                                                   
          THE FORCE     EQUILIBRIUM RESPONSE WAS LINEAR IN THIS INCREMENT

 ITERATION SUMMARY FOR THE INCREMENT:   1 TOTAL ITERATIONS, OF WHICH
   0 ARE SEVERE DISCONTINUITY ITERATIONS AND  1 ARE EQUILIBRIUM ITERATIONS.

 TIME INCREMENT COMPLETED  8.900E-03,  FRACTION OF STEP COMPLETED  0.409    
 STEP TIME COMPLETED       0.409    ,  TOTAL TIME COMPLETED        0.409    


  INCREMENT    47 STARTS. ATTEMPT NUMBER  1, TIME INCREMENT  8.900E-03
 
	UNSYMMETRIC DIRECT SPARSE SOLVER RUNNING ON
 	1 HOST:        1 MPI RANK  x 7 THREADS, 1 GPU PER RANK
 	NUMBER OF EQUATIONS:     72
 	NUMBER OF RHS:           1
 	NUMBER OF FLOPS:         2.893e+04

     CHECK POINT   START OF SOLVER    

     CHECK POINT  END OF SOLVER       

       ELAPSED USER TIME (SEC)      =   0.0000    
       ELAPSED SYSTEM TIME (SEC)    =   0.0000    
       ELAPSED TOTAL CPU TIME (SEC) =   0.0000    
       ELAPSED WALLCLOCK TIME (SEC) =          1

               CONVERGENCE CHECKS FOR EQUILIBRIUM ITERATION     1


 AVERAGE FORCE                       158.       TIME AVG. FORCE        80.8    
 LARGEST RESIDUAL FORCE             1.131E-09   AT NODE         34   DOF  2
   INSTANCE: Part Instance                                                                   
[...]

     CHECK POINT   START OF SOLVER    

     CHECK POINT  END OF SOLVER       

       ELAPSED USER TIME (SEC)      =  0.10000    
       ELAPSED SYSTEM TIME (SEC)    =   0.0000    
       ELAPSED TOTAL CPU TIME (SEC) =  0.10000    
       ELAPSED WALLCLOCK TIME (SEC) =          1

               CONVERGENCE CHECKS FOR EQUILIBRIUM ITERATION     1


 AVERAGE FORCE                       344.       TIME AVG. FORCE        173.    
 LARGEST RESIDUAL FORCE             1.131E-09   AT NODE         34   DOF  2
   INSTANCE: Part Instance                                                                   
 LARGEST INCREMENT OF DISP.         1.189E-04   AT NODE         33   DOF  2
   INSTANCE: Part Instance                                                                   
 LARGEST CORRECTION TO DISP.        1.413E-09   AT NODE         33   DOF  2
   INSTANCE: Part Instance                                                                   
          THE FORCE     EQUILIBRIUM RESPONSE WAS LINEAR IN THIS INCREMENT

 ITERATION SUMMARY FOR THE INCREMENT:   1 TOTAL ITERATIONS, OF WHICH
   0 ARE SEVERE DISCONTINUITY ITERATIONS AND  1 ARE EQUILIBRIUM ITERATIONS.

 TIME INCREMENT COMPLETED  8.900E-03,  FRACTION OF STEP COMPLETED  0.908    
 STEP TIME COMPLETED       0.908    ,  TOTAL TIME COMPLETED        0.908    


  INCREMENT   103 STARTS. ATTEMPT NUMBER  1, TIME INCREMENT  8.900E-03
 
	UNSYMMETRIC DIRECT SPARSE SOLVER RUNNING ON
 	1 HOST:        1 MPI RANK  x 7 THREADS, 1 GPU PER RANK
 	NUMBER OF EQUATIONS:     72
 	NUMBER OF RHS:           1
 	NUMBER OF FLOPS:         2.893e+04

     CHECK POINT   START OF SOLVER    

     CHECK POINT  END OF SOLVER       

       ELAPSED USER TIME (SEC)      =   0.0000    
       ELAPSED SYSTEM TIME (SEC)    =   0.0000    
       ELAPSED TOTAL CPU TIME (SEC) =   0.0000    
       ELAPSED WALLCLOCK TIME (SEC) =          0

               CONVERGENCE CHECKS FOR EQUILIBRIUM ITERATION     1


 AVERAGE FORCE                       347.       TIME AVG. FORCE        175.    
 LARGEST RESIDUAL FORCE             1.132E-09   AT NODE         34   DOF  2
   INSTANCE: Part Instance                                                                   
 LARGEST INCREMENT OF DISP.         1.189E-04   AT NODE         36   DOF  2
   INSTANCE: Part Instance                                                                   
 LARGEST CORRECTION TO DISP.        1.413E-09   AT NODE         36   DOF  2
   INSTANCE: Part Instance                                                                   
          THE FORCE     EQUILIBRIUM RESPONSE WAS LINEAR IN THIS INCREMENT

 ITERATION SUMMARY FOR THE INCREMENT:   1 TOTAL ITERATIONS, OF WHICH
   0 ARE SEVERE DISCONTINUITY ITERATIONS AND  1 ARE EQUILIBRIUM ITERATIONS.

 TIME INCREMENT COMPLETED  8.900E-03,  FRACTION OF STEP COMPLETED  0.917    
 STEP TIME COMPLETED       0.917    ,  TOTAL TIME COMPLETED        0.917    


  INCREMENT   104 STARTS. ATTEMPT NUMBER  1, TIME INCREMENT  8.900E-03
 
	UNSYMMETRIC DIRECT SPARSE SOLVER RUNNING ON
 	1 HOST:        1 MPI RANK  x 7 THREADS, 1 GPU PER RANK
 	NUMBER OF EQUATIONS:     72
 	NUMBER OF RHS:           1
 	NUMBER OF FLOPS:         2.893e+04

     CHECK POINT   START OF SOLVER    

     CHECK POINT  END OF SOLVER       

       ELAPSED USER TIME (SEC)      =  0.10000    
       ELAPSED SYSTEM TIME (SEC)    =   0.0000    
       ELAPSED TOTAL CPU TIME (SEC) =  0.10000    
       ELAPSED WALLCLOCK TIME (SEC) =          0

               CONVERGENCE CHECKS FOR EQUILIBRIUM ITERATION     1


 AVERAGE FORCE                       350.       TIME AVG. FORCE        177.    
 LARGEST RESIDUAL FORCE             1.131E-09   AT NODE         33   DOF  2
   INSTANCE: Part Instance                                                                   
 LARGEST INCREMENT OF DISP.         1.189E-04   AT NODE         32   DOF  2
   INSTANCE: Part Instance                                                                   
 LARGEST CORRECTION TO DISP.        1.413E-09   AT NODE         32   DOF  2
   INSTANCE: Part Instance                                                                   
          THE FORCE     EQUILIBRIUM RESPONSE WAS LINEAR IN THIS INCREMENT

 ITERATION SUMMARY FOR THE INCREMENT:   1 TOTAL ITERATIONS, OF WHICH
   0 ARE SEVERE DISCONTINUITY ITERATIONS AND  1 ARE EQUILIBRIUM ITERATIONS.

 TIME INCREMENT COMPLETED  8.900E-03,  FRACTION OF STEP COMPLETED  0.926    
 STEP TIME COMPLETED       0.926    ,  TOTAL TIME COMPLETED        0.926    


  INCREMENT   105 STARTS. ATTEMPT NUMBER  1, TIME INCREMENT  8.900E-03
 
	UNSYMMETRIC DIRECT SPARSE SOLVER RUNNING ON
 	1 HOST:        1 MPI RANK  x 7 THREADS, 1 GPU PER RANK
 	NUMBER OF EQUATIONS:     72
 	NUMBER OF RHS:           1
 	NUMBER OF FLOPS:         2.893e+04

     CHECK POINT   START OF SOLVER    

     CHECK POINT  END OF SOLVER       

       ELAPSED USER TIME (SEC)      =  0.20000    
       ELAPSED SYSTEM TIME (SEC)    =   0.0000    
       ELAPSED TOTAL CPU TIME (SEC) =  0.20000    
       ELAPSED WALLCLOCK TIME (SEC) =          0

               CONVERGENCE CHECKS FOR EQUILIBRIUM ITERATION     1


 AVERAGE FORCE                       354.       TIME AVG. FORCE        178.    
 LARGEST RESIDUAL FORCE             1.132E-09   AT NODE         35   DOF  2
   INSTANCE: Part Instance                                                                   
 LARGEST INCREMENT OF DISP.         1.189E-04   AT NODE         36   DOF  2
   INSTANCE: Part Instance                                                                   
 LARGEST CORRECTION TO DISP.        1.413E-09   AT NODE         36   DOF  2
   INSTANCE: Part Instance                                                                   
          THE FORCE     EQUILIBRIUM RESPONSE WAS LINEAR IN THIS INCREMENT

 ITERATION SUMMARY FOR THE INCREMENT:   1 TOTAL ITERATIONS, OF WHICH
   0 ARE SEVERE DISCONTINUITY ITERATIONS AND  1 ARE EQUILIBRIUM ITERATIONS.

 TIME INCREMENT COMPLETED  8.900E-03,  FRACTION OF STEP COMPLETED  0.935    
 STEP TIME COMPLETED       0.935    ,  TOTAL TIME COMPLETED        0.935    


  INCREMENT   106 STARTS. ATTEMPT NUMBER  1, TIME INCREMENT  8.900E-03
 
	UNSYMMETRIC DIRECT SPARSE SOLVER RUNNING ON
 	1 HOST:        1 MPI RANK  x 7 THREADS, 1 GPU PER RANK
 	NUMBER OF EQUATIONS:     72
 	NUMBER OF RHS:           1
 	NUMBER OF FLOPS:         2.893e+04

     CHECK POINT   START OF SOLVER    

     CHECK POINT  END OF SOLVER       

       ELAPSED USER TIME (SEC)      =  0.10000    
       ELAPSED SYSTEM TIME (SEC)    =   0.0000    
       ELAPSED TOTAL CPU TIME (SEC) =  0.10000    
       ELAPSED WALLCLOCK TIME (SEC) =          0

               CONVERGENCE CHECKS FOR EQUILIBRIUM ITERATION     1


 AVERAGE FORCE                       357.       TIME AVG. FORCE        180.    
 LARGEST RESIDUAL FORCE             1.132E-09   AT NODE         32   DOF  2
   INSTANCE: Part Instance                                                                   
 LARGEST INCREMENT OF DISP.         1.190E-04   AT NODE         31   DOF  2
   INSTANCE: Part Instance                                                                   
 LARGEST CORRECTION TO DISP.        1.413E-09   AT NODE         31   DOF  2
   INSTANCE: Part Instance                                                                   
          THE FORCE     EQUILIBRIUM RESPONSE WAS LINEAR IN THIS INCREMENT

 ITERATION SUMMARY FOR THE INCREMENT:   1 TOTAL ITERATIONS, OF WHICH
   0 ARE SEVERE DISCONTINUITY ITERATIONS AND  1 ARE EQUILIBRIUM ITERATIONS.

 TIME INCREMENT COMPLETED  8.900E-03,  FRACTION OF STEP COMPLETED  0.943    
 STEP TIME COMPLETED       0.943    ,  TOTAL TIME COMPLETED        0.943    


  INCREMENT   107 STARTS. ATTEMPT NUMBER  1, TIME INCREMENT  8.900E-03
 
	UNSYMMETRIC DIRECT SPARSE SOLVER RUNNING ON
 	1 HOST:        1 MPI RANK  x 7 THREADS, 1 GPU PER RANK
 	NUMBER OF EQUATIONS:     72
 	NUMBER OF RHS:           1
 	NUMBER OF FLOPS:         2.893e+04

     CHECK POINT   START OF SOLVER    

     CHECK POINT  END OF SOLVER       

       ELAPSED USER TIME (SEC)      =  0.10000    
       ELAPSED SYSTEM TIME (SEC)    =   0.0000    
       ELAPSED TOTAL CPU TIME (SEC) =  0.10000    
       ELAPSED WALLCLOCK TIME (SEC) =          0

               CONVERGENCE CHECKS FOR EQUILIBRIUM ITERATION     1


 AVERAGE FORCE                       360.       TIME AVG. FORCE        182.    
 LARGEST RESIDUAL FORCE             1.131E-09   AT NODE         32   DOF  2
   INSTANCE: Part Instance                                                                   
 LARGEST INCREMENT OF DISP.         1.190E-04   AT NODE         33   DOF  2
   INSTANCE: Part Instance                                                                   
 LARGEST CORRECTION TO DISP.        1.413E-09   AT NODE         32   DOF  2
   INSTANCE: Part Instance                                                                   
          THE FORCE     EQUILIBRIUM RESPONSE WAS LINEAR IN THIS INCREMENT

 ITERATION SUMMARY FOR THE INCREMENT:   1 TOTAL ITERATIONS, OF WHICH
   0 ARE SEVERE DISCONTINUITY ITERATIONS AND  1 ARE EQUILIBRIUM ITERATIONS.

 TIME INCREMENT COMPLETED  8.900E-03,  FRACTION OF STEP COMPLETED  0.952    
 STEP TIME COMPLETED       0.952    ,  TOTAL TIME COMPLETED        0.952    


  INCREMENT   108 STARTS. ATTEMPT NUMBER  1, TIME INCREMENT  8.900E-03
 
	UNSYMMETRIC DIRECT SPARSE SOLVER RUNNING ON
 	1 HOST:        1 MPI RANK  x 7 THREADS, 1 GPU PER RANK
 	NUMBER OF EQUATIONS:     72
 	NUMBER OF RHS:           1
 	NUMBER OF FLOPS:         2.893e+04

     CHECK POINT   START OF SOLVER    

     CHECK POINT  END OF SOLVER       

       ELAPSED USER TIME (SEC)      =  0.10000    
       ELAPSED SYSTEM TIME (SEC)    =   0.0000    
       ELAPSED TOTAL CPU TIME (SEC) =  0.10000    
       ELAPSED WALLCLOCK TIME (SEC) =          0

               CONVERGENCE CHECKS FOR EQUILIBRIUM ITERATION     1


 AVERAGE FORCE                       364.       TIME AVG. FORCE        184.    
 LARGEST RESIDUAL FORCE             1.131E-09   AT NODE         35   DOF  2
   INSTANCE: Part Instance                                                                   
 LARGEST INCREMENT OF DISP.         1.190E-04   AT NODE         32   DOF  2
   INSTANCE: Part Instance                                                                   
 LARGEST CORRECTION TO DISP.        1.413E-09   AT NODE         36   DOF  2
   INSTANCE: Part Instance                                                                   
          THE FORCE     EQUILIBRIUM RESPONSE WAS LINEAR IN THIS INCREMENT

 ITERATION SUMMARY FOR THE INCREMENT:   1 TOTAL ITERATIONS, OF WHICH
   0 ARE SEVERE DISCONTINUITY ITERATIONS AND  1 ARE EQUILIBRIUM ITERATIONS.

 TIME INCREMENT COMPLETED  8.900E-03,  FRACTION OF STEP COMPLETED  0.961    
 STEP TIME COMPLETED       0.961    ,  TOTAL TIME COMPLETED        0.961    


  INCREMENT   109 STARTS. ATTEMPT NUMBER  1, TIME INCREMENT  8.900E-03
 
	UNSYMMETRIC DIRECT SPARSE SOLVER RUNNING ON
 	1 HOST:        1 MPI RANK  x 7 THREADS, 1 GPU PER RANK
 	NUMBER OF EQUATIONS:     72
 	NUMBER OF RHS:           1
 	NUMBER OF FLOPS:         2.893e+04

     CHECK POINT   START OF SOLVER    

     CHECK POINT  END OF SOLVER       

       ELAPSED USER TIME (SEC)      =  0.10000    
       ELAPSED SYSTEM TIME (SEC)    =   0.0000    
       ELAPSED TOTAL CPU TIME (SEC) =  0.10000    
       ELAPSED WALLCLOCK TIME (SEC) =          0

               CONVERGENCE CHECKS FOR EQUILIBRIUM ITERATION     1


 AVERAGE FORCE                       367.       TIME AVG. FORCE        185.    
 LARGEST RESIDUAL FORCE             1.133E-09   AT NODE         35   DOF  2
   INSTANCE: Part Instance                                                                   
 LARGEST INCREMENT OF DISP.         1.190E-04   AT NODE         36   DOF  2
   INSTANCE: Part Instance                                                                   
 LARGEST CORRECTION TO DISP.        1.413E-09   AT NODE         36   DOF  2
   INSTANCE: Part Instance                                                                   
          THE FORCE     EQUILIBRIUM RESPONSE WAS LINEAR IN THIS INCREMENT

 ITERATION SUMMARY FOR THE INCREMENT:   1 TOTAL ITERATIONS, OF WHICH
   0 ARE SEVERE DISCONTINUITY ITERATIONS AND  1 ARE EQUILIBRIUM ITERATIONS.

 TIME INCREMENT COMPLETED  8.900E-03,  FRACTION OF STEP COMPLETED  0.970    
 STEP TIME COMPLETED       0.970    ,  TOTAL TIME COMPLETED        0.970    


  INCREMENT   110 STARTS. ATTEMPT NUMBER  1, TIME INCREMENT  8.900E-03
 
	UNSYMMETRIC DIRECT SPARSE SOLVER RUNNING ON
 	1 HOST:        1 MPI RANK  x 7 THREADS, 1 GPU PER RANK
 	NUMBER OF EQUATIONS:     72
 	NUMBER OF RHS:           1
 	NUMBER OF FLOPS:         2.893e+04

     CHECK POINT   START OF SOLVER    

     CHECK POINT  END OF SOLVER       

       ELAPSED USER TIME (SEC)      =  0.10000    
       ELAPSED SYSTEM TIME (SEC)    =   0.0000    
       ELAPSED TOTAL CPU TIME (SEC) =  0.10000    
       ELAPSED WALLCLOCK TIME (SEC) =          0

               CONVERGENCE CHECKS FOR EQUILIBRIUM ITERATION     1


 AVERAGE FORCE                       371.       TIME AVG. FORCE        187.    
 LARGEST RESIDUAL FORCE             1.132E-09   AT NODE         35   DOF  2
   INSTANCE: Part Instance                                                                   
 LARGEST INCREMENT OF DISP.         1.190E-04   AT NODE         32   DOF  2
   INSTANCE: Part Instance                                                                   
 LARGEST CORRECTION TO DISP.        1.413E-09   AT NODE         32   DOF  2
   INSTANCE: Part Instance                                                                   
          THE FORCE     EQUILIBRIUM RESPONSE WAS LINEAR IN THIS INCREMENT

 ITERATION SUMMARY FOR THE INCREMENT:   1 TOTAL ITERATIONS, OF WHICH
   0 ARE SEVERE DISCONTINUITY ITERATIONS AND  1 ARE EQUILIBRIUM ITERATIONS.

 TIME INCREMENT COMPLETED  8.900E-03,  FRACTION OF STEP COMPLETED  0.979    
 STEP TIME COMPLETED       0.979    ,  TOTAL TIME COMPLETED        0.979    


  INCREMENT   111 STARTS. ATTEMPT NUMBER  1, TIME INCREMENT  8.900E-03
 
	UNSYMMETRIC DIRECT SPARSE SOLVER RUNNING ON
 	1 HOST:        1 MPI RANK  x 7 THREADS, 1 GPU PER RANK
 	NUMBER OF EQUATIONS:     72
 	NUMBER OF RHS:           1
 	NUMBER OF FLOPS:         2.893e+04

     CHECK POINT   START OF SOLVER    

     CHECK POINT  END OF SOLVER       

       ELAPSED USER TIME (SEC)      =   0.0000    
       ELAPSED SYSTEM TIME (SEC)    =  0.10000    
       ELAPSED TOTAL CPU TIME (SEC) =  0.10000    
       ELAPSED WALLCLOCK TIME (SEC) =          0

               CONVERGENCE CHECKS FOR EQUILIBRIUM ITERATION     1


 AVERAGE FORCE                       374.       TIME AVG. FORCE        189.    
 LARGEST RESIDUAL FORCE             1.131E-09   AT NODE         32   DOF  2
   INSTANCE: Part Instance                                                                   
 LARGEST INCREMENT OF DISP.         1.190E-04   AT NODE         35   DOF  2
   INSTANCE: Part Instance                                                                   
 LARGEST CORRECTION TO DISP.        1.413E-09   AT NODE         35   DOF  2
   INSTANCE: Part Instance                                                                   
          THE FORCE     EQUILIBRIUM RESPONSE WAS LINEAR IN THIS INCREMENT

 ITERATION SUMMARY FOR THE INCREMENT:   1 TOTAL ITERATIONS, OF WHICH
   0 ARE SEVERE DISCONTINUITY ITERATIONS AND  1 ARE EQUILIBRIUM ITERATIONS.

 TIME INCREMENT COMPLETED  8.900E-03,  FRACTION OF STEP COMPLETED  0.988    
 STEP TIME COMPLETED       0.988    ,  TOTAL TIME COMPLETED        0.988    


  INCREMENT   112 STARTS. ATTEMPT NUMBER  1, TIME INCREMENT  8.900E-03
 
	UNSYMMETRIC DIRECT SPARSE SOLVER RUNNING ON
 	1 HOST:        1 MPI RANK  x 7 THREADS, 1 GPU PER RANK
 	NUMBER OF EQUATIONS:     72
 	NUMBER OF RHS:           1
 	NUMBER OF FLOPS:         2.893e+04

     CHECK POINT   START OF SOLVER    

     CHECK POINT  END OF SOLVER       

       ELAPSED USER TIME (SEC)      =  0.20000    
       ELAPSED SYSTEM TIME (SEC)    =   0.0000    
       ELAPSED TOTAL CPU TIME (SEC) =  0.20000    
       ELAPSED WALLCLOCK TIME (SEC) =          0

               CONVERGENCE CHECKS FOR EQUILIBRIUM ITERATION     1


 AVERAGE FORCE                       377.       TIME AVG. FORCE        190.    
 LARGEST RESIDUAL FORCE             1.133E-09   AT NODE         35   DOF  2
   INSTANCE: Part Instance                                                                   
 LARGEST INCREMENT OF DISP.         1.190E-04   AT NODE         36   DOF  2
   INSTANCE: Part Instance                                                                   
 LARGEST CORRECTION TO DISP.        1.413E-09   AT NODE         36   DOF  2
   INSTANCE: Part Instance                                                                   
          THE FORCE     EQUILIBRIUM RESPONSE WAS LINEAR IN THIS INCREMENT

 ITERATION SUMMARY FOR THE INCREMENT:   1 TOTAL ITERATIONS, OF WHICH
   0 ARE SEVERE DISCONTINUITY ITERATIONS AND  1 ARE EQUILIBRIUM ITERATIONS.

 TIME INCREMENT COMPLETED  8.900E-03,  FRACTION OF STEP COMPLETED  0.997    
 STEP TIME COMPLETED       0.997    ,  TOTAL TIME COMPLETED        0.997    


  INCREMENT   113 STARTS. ATTEMPT NUMBER  1, TIME INCREMENT  3.200E-03
 
	UNSYMMETRIC DIRECT SPARSE SOLVER RUNNING ON
 	1 HOST:        1 MPI RANK  x 7 THREADS, 1 GPU PER RANK
 	NUMBER OF EQUATIONS:     72
 	NUMBER OF RHS:           1
 	NUMBER OF FLOPS:         2.893e+04

     CHECK POINT   START OF SOLVER    

     CHECK POINT  END OF SOLVER       

       ELAPSED USER TIME (SEC)      =  0.20000    
       ELAPSED SYSTEM TIME (SEC)    =   0.0000    
       ELAPSED TOTAL CPU TIME (SEC) =  0.20000    
       ELAPSED WALLCLOCK TIME (SEC) =          0

               CONVERGENCE CHECKS FOR EQUILIBRIUM ITERATION     1


 AVERAGE FORCE                       379.       TIME AVG. FORCE        192.    
 LARGEST RESIDUAL FORCE             9.933E-11   AT NODE         33   DOF  2
   INSTANCE: Part Instance                                                                   
 LARGEST INCREMENT OF DISP.         4.277E-05   AT NODE         34   DOF  2
   INSTANCE: Part Instance                                                                   
 LARGEST CORRECTION TO DISP.        3.454E-10   AT NODE         34   DOF  2
   INSTANCE: Part Instance                                                                   
          THE FORCE     EQUILIBRIUM RESPONSE WAS LINEAR IN THIS INCREMENT

 ITERATION SUMMARY FOR THE INCREMENT:   1 TOTAL ITERATIONS, OF WHICH
   0 ARE SEVERE DISCONTINUITY ITERATIONS AND  1 ARE EQUILIBRIUM ITERATIONS.

 TIME INCREMENT COMPLETED  3.200E-03,  FRACTION OF STEP COMPLETED   1.00    
 STEP TIME COMPLETED        1.00    ,  TOTAL TIME COMPLETED         1.00    


          THE ANALYSIS HAS BEEN COMPLETED



     ANALYSIS SUMMARY:
     TOTAL OF        113  INCREMENTS
                       0  CUTBACKS IN AUTOMATIC INCREMENTATION
                     113  ITERATIONS INCLUDING CONTACT ITERATIONS IF PRESENT
                     113  PASSES THROUGH THE EQUATION SOLVER OF WHICH 
                     113  INVOLVE MATRIX DECOMPOSITION, INCLUDING
                       0  DECOMPOSITION(S) OF THE MASS MATRIX
                       1  REORDERING OF EQUATIONS TO MINIMIZE WAVEFRONT
                       0  ADDITIONAL RESIDUAL EVALUATIONS FOR LINE SEARCHES
                       0  ADDITIONAL OPERATOR EVALUATIONS FOR LINE SEARCHES
                       1  WARNING MESSAGES DURING USER INPUT PROCESSING
                       0  WARNING MESSAGES DURING ANALYSIS
                       0  ANALYSIS WARNINGS ARE NUMERICAL PROBLEM MESSAGES
                       0  ANALYSIS WARNINGS ARE NEGATIVE EIGENVALUE MESSAGES
                       0  ERROR MESSAGES



     JOB TIME SUMMARY
       USER TIME (SEC)      =   12.800    
       SYSTEM TIME (SEC)    =   6.9000    
       TOTAL CPU TIME (SEC) =   19.700    
       WALLCLOCK TIME (SEC) =         15
