 Abaqus/Standard 2022                  DATE 25-4ÔÂ-2023 TIME 23:12:14
 SUMMARY OF JOB INFORMATION:
 STEP  INC ATT SEVERE EQUIL TOTAL  TOTAL      STEP       INC OF       DOF    IF
               DISCON ITERS ITERS  TIME/    TIME/LPF    TIME/LPF    MONITOR RIKS
               ITERS               FREQ
   1     1   1     0     1     1  0.00220    0.00220    0.002200  
   1     2   1     0     1     1  0.00440    0.00440    0.002200  
   1     3   1     0     1     1  0.00660    0.00660    0.002200  
   1     4   1     0     1     1  0.00880    0.00880    0.002200  
   1     5   1     0     1     1  0.0110     0.0110     0.002200  
   1     6   1     0     1     1  0.0132     0.0132     0.002200  
   1     7   1     0     1     1  0.0154     0.0154     0.002200  
   1     8   1     0     1     1  0.0176     0.0176     0.002200  
   1     9   1     0     1     1  0.0198     0.0198     0.002200  
   1    10   1     0     1     1  0.0220     0.0220     0.002200  
   1    11   1     0     1     1  0.0242     0.0242     0.002200  
   1    12   1     0     1     1  0.0264     0.0264     0.002200  
   1    13   1     0     1     1  0.0286     0.0286     0.002200  
   1    14   1     0     1     1  0.0308     0.0308     0.002200  
   1    15   1     0     1     1  0.0330     0.0330     0.002200  
   1    16   1     0     1     1  0.0352     0.0352     0.002200  
   1    17   1     0     1     1  0.0374     0.0374     0.002200  
   1    18   1     0     1     1  0.0396     0.0396     0.002200  
   1    19   1     0     1     1  0.0418     0.0418     0.002200  
   1    20   1     0     1     1  0.0440     0.0440     0.002200  
   1    21   1     0     1     1  0.0462     0.0462     0.002200  
   1    22   1     0     1     1  0.0484     0.0484     0.002200  
   1    23   1     0     1     1  0.0506     0.0506     0.002200  
   1    24   1     0     1     1  0.0528     0.0528     0.002200  
   1    25   1     0     1     1  0.0550     0.0550     0.002200  
   1    26   1     0     1     1  0.0572     0.0572     0.002200  
   1    27   1     0     1     1  0.0594     0.0594     0.002200  
   1    28   1     0     1     1  0.0616     0.0616     0.002200  
   1    29   1     0     1     1  0.0638     0.0638     0.002200  
   1    30   1     0     1     1  0.0660     0.0660     0.002200  
   1    31   1     0     1     1  0.0682     0.0682     0.002200  
   1    32   1     0     1     1  0.0704     0.0704     0.002200  
   1    33   1     0     1     1  0.0726     0.0726     0.002200  
   1    34   1     0     1     1  0.0748     0.0748     0.002200  
   1    35   1     0     1     1  0.0770     0.0770     0.002200  
   1    36   1     0     1     1  0.0792     0.0792     0.002200  
   1    37   1     0     1     1  0.0814     0.0814     0.002200  
   1    38   1     0     1     1  0.0836     0.0836     0.002200  
   1    39   1     0     1     1  0.0858     0.0858     0.002200  
   1    40   1     0     1     1  0.0880     0.0880     0.002200  
   1    41   1     0     1     1  0.0902     0.0902     0.002200  
   1    42   1     0     1     1  0.0924     0.0924     0.002200  
   1    43   1     0     1     1  0.0946     0.0946     0.002200  
   1    44   1     0     1     1  0.0968     0.0968     0.002200  
   1    45   1     0     1     1  0.0990     0.0990     0.002200  
   1    46   1     0     1     1  0.101      0.101      0.002200  
   1    47   1     0     1     1  0.103      0.103      0.002200  
   1    48   1     0     1     1  0.106      0.106      0.002200  
   1    49   1     0     1     1  0.108      0.108      0.002200  
   1    50   1     0     1     1  0.110      0.110      0.002200  
   1    51   1     0     1     1  0.112      0.112      0.002200  
   1    52   1     0     1     1  0.114      0.114      0.002200  
   1    53   1     0     1     1  0.117      0.117      0.002200  
   1    54   1     0     1     1  0.119      0.119      0.002200  
   1    55   1     0     1     1  0.121      0.121      0.002200  
   1    56   1     0     1     1  0.123      0.123      0.002200  
   1    57   1     0     1     1  0.125      0.125      0.002200  
   1    58   1     0     1     1  0.128      0.128      0.002200  
   1    59   1     0     1     1  0.130      0.130      0.002200  
   1    60   1     0     1     1  0.132      0.132      0.002200  
   1    61   1     0     1     1  0.134      0.134      0.002200  
   1    62   1     0     1     1  0.136      0.136      0.002200  
   1    63   1     0     1     1  0.139      0.139      0.002200  
   1    64   1     0     1     1  0.141      0.141      0.002200  
   1    65   1     0     1     1  0.143      0.143      0.002200  
   1    66   1     0     1     1  0.145      0.145      0.002200  
   1    67   1     0     1     1  0.147      0.147      0.002200  
   1    68   1     0     1     1  0.150      0.150      0.002200  
   1    69   1     0     1     1  0.152      0.152      0.002200  
   1    70   1     0     1     1  0.154      0.154      0.002200  
   1    71   1     0     1     1  0.156      0.156      0.002200  
   1    72   1     0     1     1  0.158      0.158      0.002200  
   1    73   1     0     1     1  0.161      0.161      0.002200  
   1    74   1     0     1     1  0.163      0.163      0.002200  
   1    75   1     0     1     1  0.165      0.165      0.002200  
   1    76   1     0     1     1  0.167      0.167      0.002200  
   1    77   1     0     1     1  0.169      0.169      0.002200  
   1    78   1     0     1     1  0.172      0.172      0.002200  
   1    79   1     0     1     1  0.174      0.174      0.002200  
   1    80   1     0     1     1  0.176      0.176      0.002200  
   1    81   1     0     1     1  0.178      0.178      0.002200  
   1    82   1     0     1     1  0.180      0.180      0.002200  
   1    83   1     0     1     1  0.183      0.183      0.002200  
   1    84   1     0     1     1  0.185      0.185      0.002200  
   1    85   1     0     1     1  0.187      0.187      0.002200  
   1    86   1     0     1     1  0.189      0.189      0.002200  
   1    87   1     0     1     1  0.191      0.191      0.002200  
   1    88   1     0     1     1  0.194      0.194      0.002200  
   1    89   1     0     1     1  0.196      0.196      0.002200  
   1    90   1     0     1     1  0.198      0.198      0.002200  
   1    91   1     0     1     1  0.200      0.200      0.002200  
   1    92   1     0     1     1  0.202      0.202      0.002200  
   1    93   1     0     1     1  0.205      0.205      0.002200  
   1    94   1     0     1     1  0.207      0.207      0.002200  
   1    95   1     0     1     1  0.209      0.209      0.002200  
   1    96   1     0     1     1  0.211      0.211      0.002200  
   1    97   1     0     1     1  0.213      0.213      0.002200  
   1    98   1     0     1     1  0.216      0.216      0.002200  
   1    99   1     0     1     1  0.218      0.218      0.002200  
   1   100   1     0     1     1  0.220      0.220      0.002200  
   1   101   1     0     1     1  0.222      0.222      0.002200  
   1   102   1     0     1     1  0.224      0.224      0.002200  
   1   103   1     0     1     1  0.227      0.227      0.002200  
   1   104   1     0     1     1  0.229      0.229      0.002200  
   1   105   1     0     1     1  0.231      0.231      0.002200  
   1   106   1     0     1     1  0.233      0.233      0.002200  
   1   107   1     0     1     1  0.235      0.235      0.002200  
   1   108   1     0     1     1  0.238      0.238      0.002200  
   1   109   1     0     1     1  0.240      0.240      0.002200  
   1   110   1     0     1     1  0.242      0.242      0.002200  
   1   111   1     0     1     1  0.244      0.244      0.002200  
   1   112   1     0     1     1  0.246      0.246      0.002200  
   1   113   1     0     1     1  0.249      0.249      0.002200  
   1   114   1     0     1     1  0.251      0.251      0.002200  
   1   115   1     0     1     1  0.253      0.253      0.002200  
   1   116   1     0     1     1  0.255      0.255      0.002200  
   1   117   1     0     1     1  0.257      0.257      0.002200  
   1   118   1     0     1     1  0.260      0.260      0.002200  
   1   119   1     0     1     1  0.262      0.262      0.002200  
   1   120   1     0     1     1  0.264      0.264      0.002200  
   1   121   1     0     1     1  0.266      0.266      0.002200  
   1   122   1     0     1     1  0.268      0.268      0.002200  
   1   123   1     0     1     1  0.271      0.271      0.002200  
   1   124   1     0     1     1  0.273      0.273      0.002200  
   1   125   1     0     1     1  0.275      0.275      0.002200  
   1   126   1     0     1     1  0.277      0.277      0.002200  
   1   127   1     0     1     1  0.279      0.279      0.002200  
   1   128   1     0     1     1  0.282      0.282      0.002200  
   1   129   1     0     1     1  0.284      0.284      0.002200  
   1   130   1     0     1     1  0.286      0.286      0.002200  
   1   131   1     0     1     1  0.288      0.288      0.002200  
   1   132   1     0     1     1  0.290      0.290      0.002200  
   1   133   1     0     1     1  0.293      0.293      0.002200  
   1   134   1     0     1     1  0.295      0.295      0.002200  
   1   135   1     0     1     1  0.297      0.297      0.002200  
   1   136   1     0     1     1  0.299      0.299      0.002200  
   1   137   1     0     1     1  0.301      0.301      0.002200  
   1   138   1     0     1     1  0.304      0.304      0.002200  
   1   139   1     0     1     1  0.306      0.306      0.002200  
   1   140   1     0     1     1  0.308      0.308      0.002200  
   1   141   1     0     1     1  0.310      0.310      0.002200  
   1   142   1     0     1     1  0.312      0.312      0.002200  
   1   143   1     0     1     1  0.315      0.315      0.002200  
   1   144   1     0     1     1  0.317      0.317      0.002200  
   1   145   1     0     1     1  0.319      0.319      0.002200  
   1   146   1     0     1     1  0.321      0.321      0.002200  
   1   147   1     0     1     1  0.323      0.323      0.002200  
   1   148   1     0     1     1  0.326      0.326      0.002200  
   1   149   1     0     1     1  0.328      0.328      0.002200  
   1   150   1     0     1     1  0.330      0.330      0.002200  
   1   151   1     0     1     1  0.332      0.332      0.002200  
   1   152   1     0     1     1  0.334      0.334      0.002200  
   1   153   1     0     1     1  0.337      0.337      0.002200  
   1   154   1     0     1     1  0.339      0.339      0.002200  
   1   155   1     0     1     1  0.341      0.341      0.002200  
   1   156   1     0     1     1  0.343      0.343      0.002200  
   1   157   1     0     1     1  0.345      0.345      0.002200  
   1   158   1     0     1     1  0.348      0.348      0.002200  
   1   159   1     0     1     1  0.350      0.350      0.002200  
   1   160   1     0     1     1  0.352      0.352      0.002200  
   1   161   1     0     1     1  0.354      0.354      0.002200  
   1   162   1     0     1     1  0.356      0.356      0.002200  
   1   163   1     0     1     1  0.359      0.359      0.002200  
   1   164   1     0     1     1  0.361      0.361      0.002200  
   1   165   1     0     1     1  0.363      0.363      0.002200  
   1   166   1     0     1     1  0.365      0.365      0.002200  
   1   167   1     0     1     1  0.367      0.367      0.002200  
   1   168   1     0     1     1  0.370      0.370      0.002200  
   1   169   1     0     1     1  0.372      0.372      0.002200  
   1   170   1     0     1     1  0.374      0.374      0.002200  
   1   171   1     0     1     1  0.376      0.376      0.002200  
   1   172   1     0     1     1  0.378      0.378      0.002200  
   1   173   1     0     1     1  0.381      0.381      0.002200  
   1   174   1     0     1     1  0.383      0.383      0.002200  
   1   175   1     0     1     1  0.385      0.385      0.002200  
   1   176   1     0     1     1  0.387      0.387      0.002200  
   1   177   1     0     1     1  0.389      0.389      0.002200  
   1   178   1     0     1     1  0.392      0.392      0.002200  
   1   179   1     0     1     1  0.394      0.394      0.002200  
   1   180   1     0     1     1  0.396      0.396      0.002200  
   1   181   1     0     1     1  0.398      0.398      0.002200  
   1   182   1     0     1     1  0.400      0.400      0.002200  
   1   183   1     0     1     1  0.403      0.403      0.002200  
   1   184   1     0     1     1  0.405      0.405      0.002200  
   1   185   1     0     1     1  0.407      0.407      0.002200  
   1   186   1     0     1     1  0.409      0.409      0.002200  
   1   187   1     0     1     1  0.411      0.411      0.002200  
   1   188   1     0     1     1  0.414      0.414      0.002200  
   1   189   1     0     1     1  0.416      0.416      0.002200  
   1   190   1     0     1     1  0.418      0.418      0.002200  
   1   191   1     0     1     1  0.420      0.420      0.002200  
   1   192   1     0     1     1  0.422      0.422      0.002200  
   1   193   1     0     1     1  0.425      0.425      0.002200  
   1   194   1     0     1     1  0.427      0.427      0.002200  
   1   195   1     0     1     1  0.429      0.429      0.002200  
   1   196   1     0     1     1  0.431      0.431      0.002200  
   1   197   1     0     1     1  0.433      0.433      0.002200  
   1   198   1     0     1     1  0.436      0.436      0.002200  
   1   199   1     0     1     1  0.438      0.438      0.002200  
   1   200   1     0     1     1  0.440      0.440      0.002200  
   1   201   1     0     1     1  0.442      0.442      0.002200  
   1   202   1     0     1     1  0.444      0.444      0.002200  
   1   203   1     0     1     1  0.447      0.447      0.002200  
   1   204   1     0     1     1  0.449      0.449      0.002200  
   1   205   1     0     1     1  0.451      0.451      0.002200  
   1   206   1     0     1     1  0.453      0.453      0.002200  
   1   207   1     0     1     1  0.455      0.455      0.002200  
   1   208   1     0     1     1  0.458      0.458      0.002200  
   1   209   1     0     1     1  0.460      0.460      0.002200  
   1   210   1     0     1     1  0.462      0.462      0.002200  
   1   211   1     0     1     1  0.464      0.464      0.002200  
   1   212   1     0     1     1  0.466      0.466      0.002200  
   1   213   1     0     1     1  0.469      0.469      0.002200  
   1   214   1     0     1     1  0.471      0.471      0.002200  
   1   215   1     0     1     1  0.473      0.473      0.002200  
   1   216   1     0     1     1  0.475      0.475      0.002200  
   1   217   1     0     1     1  0.477      0.477      0.002200  
   1   218   1     0     1     1  0.480      0.480      0.002200  
   1   219   1     0     1     1  0.482      0.482      0.002200  
   1   220   1     0     1     1  0.484      0.484      0.002200  
   1   221   1     0     1     1  0.486      0.486      0.002200  
   1   222   1     0     1     1  0.488      0.488      0.002200  
   1   223   1     0     1     1  0.491      0.491      0.002200  
   1   224   1     0     1     1  0.493      0.493      0.002200  
   1   225   1     0     1     1  0.495      0.495      0.002200  
   1   226   1     0     1     1  0.497      0.497      0.002200  
   1   227   1     0     1     1  0.499      0.499      0.002200  
   1   228   1     0     1     1  0.502      0.502      0.002200  
   1   229   1     0     1     1  0.504      0.504      0.002200  
   1   230   1     0     1     1  0.506      0.506      0.002200  
   1   231   1     0     1     1  0.508      0.508      0.002200  
   1   232   1     0     1     1  0.510      0.510      0.002200  
   1   233   1     0     1     1  0.513      0.513      0.002200  
   1   234   1     0     1     1  0.515      0.515      0.002200  
   1   235   1     0     1     1  0.517      0.517      0.002200  
   1   236   1     0     1     1  0.519      0.519      0.002200  
   1   237   1     0     1     1  0.521      0.521      0.002200  
   1   238   1     0     1     1  0.524      0.524      0.002200  
   1   239   1     0     1     1  0.526      0.526      0.002200  
   1   240   1     0     1     1  0.528      0.528      0.002200  
   1   241   1     0     1     1  0.530      0.530      0.002200  
   1   242   1     0     1     1  0.532      0.532      0.002200  
   1   243   1     0     1     1  0.535      0.535      0.002200  
   1   244   1     0     1     1  0.537      0.537      0.002200  
   1   245   1     0     1     1  0.539      0.539      0.002200  
   1   246   1     0     1     1  0.541      0.541      0.002200  
   1   247   1     0     1     1  0.543      0.543      0.002200  
   1   248   1     0     1     1  0.546      0.546      0.002200  
   1   249   1     0     1     1  0.548      0.548      0.002200  
   1   250   1     0     1     1  0.550      0.550      0.002200  
   1   251   1     0     1     1  0.552      0.552      0.002200  
   1   252   1     0     1     1  0.554      0.554      0.002200  
   1   253   1     0     1     1  0.557      0.557      0.002200  
   1   254   1     0     1     1  0.559      0.559      0.002200  
   1   255   1     0     1     1  0.561      0.561      0.002200  
   1   256   1     0     1     1  0.563      0.563      0.002200  
   1   257   1     0     1     1  0.565      0.565      0.002200  
   1   258   1     0     1     1  0.568      0.568      0.002200  
   1   259   1     0     1     1  0.570      0.570      0.002200  
   1   260   1     0     1     1  0.572      0.572      0.002200  
   1   261   1     0     1     1  0.574      0.574      0.002200  
   1   262   1     0     1     1  0.576      0.576      0.002200  
   1   263   1     0     1     1  0.579      0.579      0.002200  
   1   264   1     0     1     1  0.581      0.581      0.002200  
   1   265   1     0     1     1  0.583      0.583      0.002200  
   1   266   1     0     1     1  0.585      0.585      0.002200  
   1   267   1     0     1     1  0.587      0.587      0.002200  
   1   268   1     0     1     1  0.590      0.590      0.002200  
   1   269   1     0     1     1  0.592      0.592      0.002200  
   1   270   1     0     1     1  0.594      0.594      0.002200  
   1   271   1     0     1     1  0.596      0.596      0.002200  
   1   272   1     0     1     1  0.598      0.598      0.002200  
   1   273   1     0     1     1  0.601      0.601      0.002200  
   1   274   1     0     1     1  0.603      0.603      0.002200  
   1   275   1     0     1     1  0.605      0.605      0.002200  
   1   276   1     0     1     1  0.607      0.607      0.002200  
   1   277   1     0     1     1  0.609      0.609      0.002200  
   1   278   1     0     1     1  0.612      0.612      0.002200  
   1   279   1     0     1     1  0.614      0.614      0.002200  
   1   280   1     0     1     1  0.616      0.616      0.002200  
   1   281   1     0     1     1  0.618      0.618      0.002200  
   1   282   1     0     1     1  0.620      0.620      0.002200  
   1   283   1     0     1     1  0.623      0.623      0.002200  
   1   284   1     0     1     1  0.625      0.625      0.002200  
   1   285   1     0     1     1  0.627      0.627      0.002200  
   1   286   1     0     1     1  0.629      0.629      0.002200  
   1   287   1     0     1     1  0.631      0.631      0.002200  
   1   288   1     0     1     1  0.634      0.634      0.002200  
   1   289   1     0     1     1  0.636      0.636      0.002200  
   1   290   1     0     1     1  0.638      0.638      0.002200  
   1   291   1     0     1     1  0.640      0.640      0.002200  
   1   292   1     0     1     1  0.642      0.642      0.002200  
   1   293   1     0     1     1  0.645      0.645      0.002200  
   1   294   1     0     1     1  0.647      0.647      0.002200  
   1   295   1     0     1     1  0.649      0.649      0.002200  
   1   296   1     0     1     1  0.651      0.651      0.002200  
   1   297   1     0     1     1  0.653      0.653      0.002200  
   1   298   1     0     1     1  0.656      0.656      0.002200  
   1   299   1     0     1     1  0.658      0.658      0.002200  
   1   300   1     0     1     1  0.660      0.660      0.002200  
   1   301   1     0     1     1  0.662      0.662      0.002200  
   1   302   1     0     1     1  0.664      0.664      0.002200  
   1   303   1     0     1     1  0.667      0.667      0.002200  
   1   304   1     0     1     1  0.669      0.669      0.002200  
   1   305   1     0     1     1  0.671      0.671      0.002200  
   1   306   1     0     1     1  0.673      0.673      0.002200  
   1   307   1     0     1     1  0.675      0.675      0.002200  
   1   308   1     0     1     1  0.678      0.678      0.002200  
   1   309   1     0     1     1  0.680      0.680      0.002200  
   1   310   1     0     1     1  0.682      0.682      0.002200  
   1   311   1     0     1     1  0.684      0.684      0.002200  
   1   312   1     0     1     1  0.686      0.686      0.002200  
   1   313   1     0     1     1  0.689      0.689      0.002200  
   1   314   1     0     1     1  0.691      0.691      0.002200  
   1   315   1     0     1     1  0.693      0.693      0.002200  
   1   316   1     0     1     1  0.695      0.695      0.002200  
   1   317   1     0     1     1  0.697      0.697      0.002200  
   1   318   1     0     1     1  0.700      0.700      0.002200  
   1   319   1     0     1     1  0.702      0.702      0.002200  
   1   320   1     0     1     1  0.704      0.704      0.002200  
   1   321   1     0     1     1  0.706      0.706      0.002200  
   1   322   1     0     1     1  0.708      0.708      0.002200  
   1   323   1     0     1     1  0.711      0.711      0.002200  
   1   324   1     0     1     1  0.713      0.713      0.002200  
   1   325   1     0     1     1  0.715      0.715      0.002200  
   1   326   1     0     1     1  0.717      0.717      0.002200  
   1   327   1     0     1     1  0.719      0.719      0.002200  
   1   328   1     0     1     1  0.722      0.722      0.002200  
   1   329   1     0     1     1  0.724      0.724      0.002200  
   1   330   1     0     1     1  0.726      0.726      0.002200  
   1   331   1     0     1     1  0.728      0.728      0.002200  
   1   332   1     0     1     1  0.730      0.730      0.002200  
   1   333   1     0     1     1  0.733      0.733      0.002200  
   1   334   1     0     1     1  0.735      0.735      0.002200  
   1   335   1     0     1     1  0.737      0.737      0.002200  
   1   336   1     0     1     1  0.739      0.739      0.002200  
   1   337   1     0     1     1  0.741      0.741      0.002200  
   1   338   1     0     1     1  0.744      0.744      0.002200  
   1   339   1     0     1     1  0.746      0.746      0.002200  
   1   340   1     0     1     1  0.748      0.748      0.002200  
   1   341   1     0     1     1  0.750      0.750      0.002200  
   1   342   1     0     1     1  0.752      0.752      0.002200  
   1   343   1     0     1     1  0.755      0.755      0.002200  
   1   344   1     0     1     1  0.757      0.757      0.002200  
   1   345   1     0     1     1  0.759      0.759      0.002200  
   1   346   1     0     1     1  0.761      0.761      0.002200  
   1   347   1     0     1     1  0.763      0.763      0.002200  
   1   348   1     0     1     1  0.766      0.766      0.002200  
   1   349   1     0     1     1  0.768      0.768      0.002200  
   1   350   1     0     1     1  0.770      0.770      0.002200  
   1   351   1     0     1     1  0.772      0.772      0.002200  
   1   352   1     0     1     1  0.774      0.774      0.002200  
   1   353   1     0     1     1  0.777      0.777      0.002200  
   1   354   1     0     1     1  0.779      0.779      0.002200  
   1   355   1     0     1     1  0.781      0.781      0.002200  
   1   356   1     0     1     1  0.783      0.783      0.002200  
   1   357   1     0     1     1  0.785      0.785      0.002200  
   1   358   1     0     1     1  0.788      0.788      0.002200  
   1   359   1     0     1     1  0.790      0.790      0.002200  
   1   360   1     0     1     1  0.792      0.792      0.002200  
   1   361   1     0     1     1  0.794      0.794      0.002200  
   1   362   1     0     1     1  0.796      0.796      0.002200  
   1   363   1     0     1     1  0.799      0.799      0.002200  
   1   364   1     0     1     1  0.801      0.801      0.002200  
   1   365   1     0     1     1  0.803      0.803      0.002200  
   1   366   1     0     1     1  0.805      0.805      0.002200  
   1   367   1     0     1     1  0.807      0.807      0.002200  
   1   368   1     0     1     1  0.810      0.810      0.002200  
   1   369   1     0     1     1  0.812      0.812      0.002200  
   1   370   1     0     1     1  0.814      0.814      0.002200  
   1   371   1     0     1     1  0.816      0.816      0.002200  
   1   372   1     0     1     1  0.818      0.818      0.002200  
   1   373   1     0     1     1  0.821      0.821      0.002200  
   1   374   1     0     1     1  0.823      0.823      0.002200  
   1   375   1     0     1     1  0.825      0.825      0.002200  
   1   376   1     0     1     1  0.827      0.827      0.002200  
   1   377   1     0     1     1  0.829      0.829      0.002200  
   1   378   1     0     1     1  0.832      0.832      0.002200  
   1   379   1     0     1     1  0.834      0.834      0.002200  
   1   380   1     0     1     1  0.836      0.836      0.002200  
   1   381   1     0     1     1  0.838      0.838      0.002200  
   1   382   1     0     1     1  0.840      0.840      0.002200  
   1   383   1     0     1     1  0.843      0.843      0.002200  
   1   384   1     0     1     1  0.845      0.845      0.002200  
   1   385   1     0     1     1  0.847      0.847      0.002200  
   1   386   1     0     1     1  0.849      0.849      0.002200  
   1   387   1     0     1     1  0.851      0.851      0.002200  
   1   388   1     0     1     1  0.854      0.854      0.002200  
   1   389   1     0     1     1  0.856      0.856      0.002200  
   1   390   1     0     1     1  0.858      0.858      0.002200  
   1   391   1     0     1     1  0.860      0.860      0.002200  
   1   392   1     0     1     1  0.862      0.862      0.002200  
   1   393   1     0     1     1  0.865      0.865      0.002200  
   1   394   1     0     1     1  0.867      0.867      0.002200  
   1   395   1     0     1     1  0.869      0.869      0.002200  
   1   396   1     0     1     1  0.871      0.871      0.002200  
   1   397   1     0     1     1  0.873      0.873      0.002200  
   1   398   1     0     1     1  0.876      0.876      0.002200  
   1   399   1     0     1     1  0.878      0.878      0.002200  
   1   400   1     0     1     1  0.880      0.880      0.002200  
   1   401   1     0     1     1  0.882      0.882      0.002200  
   1   402   1     0     1     1  0.884      0.884      0.002200  
   1   403   1     0     1     1  0.887      0.887      0.002200  
   1   404   1     0     1     1  0.889      0.889      0.002200  
   1   405   1     0     1     1  0.891      0.891      0.002200  
   1   406   1     0     1     1  0.893      0.893      0.002200  
   1   407   1     0     1     1  0.895      0.895      0.002200  
   1   408   1     0     1     1  0.898      0.898      0.002200  
   1   409   1     0     1     1  0.900      0.900      0.002200  
   1   410   1     0     1     1  0.902      0.902      0.002200  
   1   411   1     0     1     1  0.904      0.904      0.002200  
   1   412   1     0     1     1  0.906      0.906      0.002200  
   1   413   1     0     1     1  0.909      0.909      0.002200  
   1   414   1     0     1     1  0.911      0.911      0.002200  
   1   415   1     0     1     1  0.913      0.913      0.002200  
   1   416   1     0     1     1  0.915      0.915      0.002200  
   1   417   1     0     1     1  0.917      0.917      0.002200  
   1   418   1     0     1     1  0.920      0.920      0.002200  
   1   419   1     0     1     1  0.922      0.922      0.002200  
   1   420   1     0     1     1  0.924      0.924      0.002200  
   1   421   1     0     1     1  0.926      0.926      0.002200  
   1   422   1     0     1     1  0.928      0.928      0.002200  
   1   423   1     0     1     1  0.931      0.931      0.002200  
   1   424   1     0     1     1  0.933      0.933      0.002200  
   1   425   1     0     1     1  0.935      0.935      0.002200  
   1   426   1     0     1     1  0.937      0.937      0.002200  
   1   427   1     0     1     1  0.939      0.939      0.002200  
   1   428   1     0     1     1  0.942      0.942      0.002200  
   1   429   1     0     1     1  0.944      0.944      0.002200  
   1   430   1     0     1     1  0.946      0.946      0.002200  
   1   431   1     0     1     1  0.948      0.948      0.002200  
   1   432   1     0     1     1  0.950      0.950      0.002200  
   1   433   1     0     1     1  0.953      0.953      0.002200  
   1   434   1     0     1     1  0.955      0.955      0.002200  
   1   435   1     0     1     1  0.957      0.957      0.002200  
   1   436   1     0     1     1  0.959      0.959      0.002200  
   1   437   1     0     1     1  0.961      0.961      0.002200  
   1   438   1     0     1     1  0.964      0.964      0.002200  
   1   439   1     0     1     1  0.966      0.966      0.002200  
   1   440   1     0     1     1  0.968      0.968      0.002200  
   1   441   1     0     1     1  0.970      0.970      0.002200  
   1   442   1     0     1     1  0.972      0.972      0.002200  
   1   443   1     0     1     1  0.975      0.975      0.002200  
   1   444   1     0     1     1  0.977      0.977      0.002200  
   1   445   1     0     1     1  0.979      0.979      0.002200  
   1   446   1     0     1     1  0.981      0.981      0.002200  
   1   447   1     0     1     1  0.983      0.983      0.002200  
   1   448   1     0     1     1  0.986      0.986      0.002200  
   1   449   1     0     1     1  0.988      0.988      0.002200  
   1   450   1     0     1     1  0.990      0.990      0.002200  
   1   451   1     0     1     1  0.992      0.992      0.002200  
   1   452   1     0     1     1  0.994      0.994      0.002200  
   1   453   1     0     1     1  0.997      0.997      0.002200  
   1   454   1     0     1     1  0.999      0.999      0.002200  
   1   455   1     0     1     1  1.00       1.00       0.001200  
                          
 THE ANALYSIS HAS COMPLETED SUCCESSFULLY
