 Abaqus/Standard 2022                  DATE 25-4ÔÂ-2023 TIME 23:15:42
 SUMMARY OF JOB INFORMATION:
 STEP  INC ATT SEVERE EQUIL TOTAL  TOTAL      STEP       INC OF       DOF    IF
               DISCON ITERS ITERS  TIME/    TIME/LPF    TIME/LPF    MONITOR RIKS
               ITERS               FREQ
   1     1   1     0     1     1  0.0267     0.0267     0.02670   
   1     2   1     0     1     1  0.0534     0.0534     0.02670   
   1     3   1     0     1     1  0.0801     0.0801     0.02670   
   1     4   1     0     1     1  0.107      0.107      0.02670   
   1     5   1     0     1     1  0.134      0.134      0.02670   
   1     6   1     0     1     1  0.160      0.160      0.02670   
   1     7   1     0     1     1  0.187      0.187      0.02670   
   1     8   1     0     1     1  0.214      0.214      0.02670   
   1     9   1     0     1     1  0.240      0.240      0.02670   
   1    10   1     0     1     1  0.267      0.267      0.02670   
   1    11   1     0     1     1  0.294      0.294      0.02670   
   1    12   1     0     1     1  0.320      0.320      0.02670   
   1    13   1     0     1     1  0.347      0.347      0.02670   
   1    14   1     0     1     1  0.374      0.374      0.02670   
   1    15   1     0     1     1  0.401      0.401      0.02670   
   1    16   1     0     1     1  0.427      0.427      0.02670   
   1    17   1     0     1     1  0.454      0.454      0.02670   
   1    18   1     0     1     1  0.481      0.481      0.02670   
   1    19   1     0     1     1  0.507      0.507      0.02670   
   1    20   1     0     1     1  0.534      0.534      0.02670   
   1    21   1     0     1     1  0.561      0.561      0.02670   
   1    22   1     0     1     1  0.587      0.587      0.02670   
   1    23   1     0     1     1  0.614      0.614      0.02670   
   1    24   1     0     1     1  0.641      0.641      0.02670   
   1    25   1     0     1     1  0.667      0.667      0.02670   
   1    26   1     0     1     1  0.694      0.694      0.02670   
   1    27   1     0     1     1  0.721      0.721      0.02670   
   1    28   1     0     1     1  0.748      0.748      0.02670   
   1    29   1     0     1     1  0.774      0.774      0.02670   
   1    30   1     0     1     1  0.801      0.801      0.02670   
   1    31   1     0     1     1  0.828      0.828      0.02670   
   1    32   1     0     1     1  0.854      0.854      0.02670   
   1    33   1     0     1     1  0.881      0.881      0.02670   
   1    34   1     0     1     1  0.908      0.908      0.02670   
   1    35   1     0     1     1  0.934      0.934      0.02670   
   1    36   1     0     1     1  0.961      0.961      0.02670   
   1    37   1     0     1     1  0.988      0.988      0.02670   
   1    38   1     0     1     1  1.00       1.00       0.01210   
                          
 THE ANALYSIS HAS COMPLETED SUCCESSFULLY
