 Abaqus/Standard 2022                  DATE 25-4ÔÂ-2023 TIME 22:54:45
 SUMMARY OF JOB INFORMATION:
 STEP  INC ATT SEVERE EQUIL TOTAL  TOTAL      STEP       INC OF       DOF    IF
               DISCON ITERS ITERS  TIME/    TIME/LPF    TIME/LPF    MONITOR RIKS
               ITERS               FREQ
   1     1   1     0     1     1  0.00890    0.00890    0.008900  
   1     2   1     0     1     1  0.0178     0.0178     0.008900  
   1     3   1     0     1     1  0.0267     0.0267     0.008900  
   1     4   1     0     1     1  0.0356     0.0356     0.008900  
   1     5   1     0     1     1  0.0445     0.0445     0.008900  
   1     6   1     0     1     1  0.0534     0.0534     0.008900  
   1     7   1     0     1     1  0.0623     0.0623     0.008900  
   1     8   1     0     1     1  0.0712     0.0712     0.008900  
   1     9   1     0     1     1  0.0801     0.0801     0.008900  
   1    10   1     0     1     1  0.0890     0.0890     0.008900  
   1    11   1     0     1     1  0.0979     0.0979     0.008900  
   1    12   1     0     1     1  0.107      0.107      0.008900  
   1    13   1     0     1     1  0.116      0.116      0.008900  
   1    14   1     0     1     1  0.125      0.125      0.008900  
   1    15   1     0     1     1  0.134      0.134      0.008900  
   1    16   1     0     1     1  0.142      0.142      0.008900  
   1    17   1     0     1     1  0.151      0.151      0.008900  
   1    18   1     0     1     1  0.160      0.160      0.008900  
   1    19   1     0     1     1  0.169      0.169      0.008900  
   1    20   1     0     1     1  0.178      0.178      0.008900  
   1    21   1     0     1     1  0.187      0.187      0.008900  
   1    22   1     0     1     1  0.196      0.196      0.008900  
   1    23   1     0     1     1  0.205      0.205      0.008900  
   1    24   1     0     1     1  0.214      0.214      0.008900  
   1    25   1     0     1     1  0.222      0.222      0.008900  
   1    26   1     0     1     1  0.231      0.231      0.008900  
   1    27   1     0     1     1  0.240      0.240      0.008900  
   1    28   1     0     1     1  0.249      0.249      0.008900  
   1    29   1     0     1     1  0.258      0.258      0.008900  
   1    30   1     0     1     1  0.267      0.267      0.008900  
   1    31   1     0     1     1  0.276      0.276      0.008900  
   1    32   1     0     1     1  0.285      0.285      0.008900  
   1    33   1     0     1     1  0.294      0.294      0.008900  
   1    34   1     0     1     1  0.303      0.303      0.008900  
   1    35   1     0     1     1  0.312      0.312      0.008900  
   1    36   1     0     1     1  0.320      0.320      0.008900  
   1    37   1     0     1     1  0.329      0.329      0.008900  
   1    38   1     0     1     1  0.338      0.338      0.008900  
   1    39   1     0     1     1  0.347      0.347      0.008900  
   1    40   1     0     1     1  0.356      0.356      0.008900  
   1    41   1     0     1     1  0.365      0.365      0.008900  
   1    42   1     0     1     1  0.374      0.374      0.008900  
   1    43   1     0     1     1  0.383      0.383      0.008900  
   1    44   1     0     1     1  0.392      0.392      0.008900  
   1    45   1     0     1     1  0.401      0.401      0.008900  
   1    46   1     0     1     1  0.409      0.409      0.008900  
   1    47   1     0     1     1  0.418      0.418      0.008900  
   1    48   1     0     1     1  0.427      0.427      0.008900  
   1    49   1     0     1     1  0.436      0.436      0.008900  
   1    50   1     0     1     1  0.445      0.445      0.008900  
   1    51   1     0     1     1  0.454      0.454      0.008900  
   1    52   1     0     1     1  0.463      0.463      0.008900  
   1    53   1     0     1     1  0.472      0.472      0.008900  
   1    54   1     0     1     1  0.481      0.481      0.008900  
   1    55   1     0     1     1  0.490      0.490      0.008900  
   1    56   1     0     2     2  0.498      0.498      0.008900  
   1    57   1     0     3     3  0.507      0.507      0.008900  
   1    58   1     0     2     2  0.516      0.516      0.008900  
   1    59   1     0     2     2  0.525      0.525      0.008900  
   1    60   1     0     1     1  0.534      0.534      0.008900  
   1    61   1     0     1     1  0.543      0.543      0.008900  
   1    62   1     0     1     1  0.552      0.552      0.008900  
   1    63   1     0     1     1  0.561      0.561      0.008900  
   1    64   1     0     1     1  0.570      0.570      0.008900  
   1    65   1     0     1     1  0.579      0.579      0.008900  
   1    66   1     0     1     1  0.587      0.587      0.008900  
   1    67   1     0     1     1  0.596      0.596      0.008900  
   1    68   1     0     1     1  0.605      0.605      0.008900  
   1    69   1     0     1     1  0.614      0.614      0.008900  
   1    70   1     0     1     1  0.623      0.623      0.008900  
   1    71   1     0     1     1  0.632      0.632      0.008900  
   1    72   1     0     1     1  0.641      0.641      0.008900  
   1    73   1     0     1     1  0.650      0.650      0.008900  
   1    74   1     0     1     1  0.659      0.659      0.008900  
   1    75   1     0     1     1  0.668      0.668      0.008900  
   1    76   1     0     1     1  0.676      0.676      0.008900  
   1    77   1     0     1     1  0.685      0.685      0.008900  
   1    78   1     0     1     1  0.694      0.694      0.008900  
   1    79   1     0     1     1  0.703      0.703      0.008900  
   1    80   1     0     1     1  0.712      0.712      0.008900  
   1    81   1     0     1     1  0.721      0.721      0.008900  
   1    82   1     0     1     1  0.730      0.730      0.008900  
   1    83   1     0     1     1  0.739      0.739      0.008900  
   1    84   1     0     1     1  0.748      0.748      0.008900  
   1    85   1     0     1     1  0.757      0.757      0.008900  
   1    86   1     0     1     1  0.765      0.765      0.008900  
   1    87   1     0     1     1  0.774      0.774      0.008900  
   1    88   1     0     1     1  0.783      0.783      0.008900  
   1    89   1     0     1     1  0.792      0.792      0.008900  
   1    90   1     0     1     1  0.801      0.801      0.008900  
   1    91   1     0     1     1  0.810      0.810      0.008900  
   1    92   1     0     1     1  0.819      0.819      0.008900  
   1    93   1     0     1     1  0.828      0.828      0.008900  
   1    94   1     0     1     1  0.837      0.837      0.008900  
   1    95   1     0     1     1  0.846      0.846      0.008900  
   1    96   1     0     1     1  0.854      0.854      0.008900  
   1    97   1     0     1     1  0.863      0.863      0.008900  
   1    98   1     0     1     1  0.872      0.872      0.008900  
   1    99   1     0     1     1  0.881      0.881      0.008900  
   1   100   1     0     1     1  0.890      0.890      0.008900  
   1   101   1     0     1     1  0.899      0.899      0.008900  
   1   102   1     0     1     1  0.908      0.908      0.008900  
   1   103   1     0     1     1  0.917      0.917      0.008900  
   1   104   1     0     1     1  0.926      0.926      0.008900  
   1   105   1     0     1     1  0.935      0.935      0.008900  
   1   106   1     0     1     1  0.943      0.943      0.008900  
   1   107   1     0     1     1  0.952      0.952      0.008900  
   1   108   1     0     1     1  0.961      0.961      0.008900  
   1   109   1     0     1     1  0.970      0.970      0.008900  
   1   110   1     0     1     1  0.979      0.979      0.008900  
   1   111   1     0     1     1  0.988      0.988      0.008900  
   1   112   1     0     1     1  0.997      0.997      0.008900  
   1   113   1     0     1     1  1.00       1.00       0.003200  
                          
 THE ANALYSIS HAS COMPLETED SUCCESSFULLY
