1

   Abaqus 2022                                  Date 25-4ÔÂ-2023   Time 22:58:43
   For use by Supplied by Team-SolidSQUAD under license from Dassault Systemes or its subsidiary.

 Analysis of T_steelBrick_L10_W10_D1_Sa75_Sb450_dS4                              
 Load is applied in this step                                                    
 STEP    1     INCREMENT     1     STEP TIME    0.00    


                        S T E P       1     S T A T I C   A N A L Y S I S


          Load is applied in this step                                                    

     AUTOMATIC TIME CONTROL WITH -
          A SUGGESTED INITIAL TIME INCREMENT OF                8.900E-03
          AND A TOTAL TIME PERIOD OF                            1.00    
          THE MINIMUM TIME INCREMENT ALLOWED IS                1.000E-05
          THE MAXIMUM TIME INCREMENT ALLOWED IS                8.900E-03

     LINEAR EQUATION SOLVER TYPE         DIRECT SPARSE

 CONVERGENCE TOLERANCE PARAMETERS FOR FORCE    
     CRITERION FOR RESIDUAL FORCE     FOR A NONLINEAR PROBLEM          5.000E-03
     CRITERION FOR DISP.    CORRECTION IN A NONLINEAR PROBLEM          1.000E-02
     INITIAL VALUE OF TIME AVERAGE FORCE                               1.000E-02
     AVERAGE FORCE     IS TIME AVERAGE FORCE    
     ALTERNATE CRIT. FOR RESIDUAL FORCE     FOR A NONLINEAR PROBLEM    2.000E-02
     CRITERION FOR ZERO FORCE     RELATIVE TO TIME AVRG. FORCE         1.000E-05
     CRITERION FOR RESIDUAL FORCE     WHEN THERE IS ZERO FLUX          1.000E-05
     CRITERION FOR DISP.    CORRECTION WHEN THERE IS ZERO FLUX         1.000E-03
     CRITERION FOR RESIDUAL FORCE     FOR A LINEAR INCREMENT           1.000E-08
     FIELD CONVERSION RATIO                                             1.00    
     CRITERION FOR ZERO FORCE     REL. TO TIME AVRG. MAX. FORCE        1.000E-05
     CRITERION FOR ZERO DISP.    RELATIVE TO CHARACTERISTIC LENGTH     1.000E-08

     VOLUMETRIC STRAIN COMPATIBILITY TOLERANCE FOR HYBRID SOLIDS       1.000E-05
     AXIAL STRAIN COMPATIBILITY TOLERANCE FOR HYBRID BEAMS             1.000E-05
     TRANS. SHEAR STRAIN COMPATIBILITY TOLERANCE FOR HYBRID BEAMS      1.000E-05
     SOFT CONTACT CONSTRAINT COMPATIBILITY TOLERANCE FOR P>P0          5.000E-03
     SOFT CONTACT CONSTRAINT COMPATIBILITY TOLERANCE FOR P=0.0         0.100    
     CONTACT FORCE ERROR TOLERANCE FOR CONVERT SDI=YES                 1.00    
     DISPLACEMENT COMPATIBILITY TOLERANCE FOR DCOUP ELEMENTS           1.000E-05
     ROTATION COMPATIBILITY TOLERANCE FOR DCOUP ELEMENTS               1.000E-05

 EQUILIBRIUM WILL BE CHECKED FOR SEVERE DISCONTINUITY ITERATIONS

 TIME INCREMENTATION CONTROL PARAMETERS:
     FIRST EQUILIBRIUM ITERATION FOR CONSECUTIVE DIVERGENCE CHECK              4
     EQUILIBRIUM ITERATION AT WHICH LOG. CONVERGENCE RATE CHECK BEGINS         8
     EQUILIBRIUM ITERATION AFTER WHICH ALTERNATE RESIDUAL IS USED              9
     MAXIMUM EQUILIBRIUM ITERATIONS ALLOWED                                   16
     EQUILIBRIUM ITERATION COUNT FOR CUT-BACK IN NEXT INCREMENT               10
     MAXIMUM EQUILIB. ITERS IN TWO INCREMENTS FOR TIME INCREMENT INCREASE      4
     MAXIMUM ITERATIONS FOR SEVERE DISCONTINUITIES                            50
     MAXIMUM ATTEMPTS ALLOWED IN AN INCREMENT                                  5
     MAXIMUM DISCON. ITERS IN TWO INCREMENTS FOR TIME INCREMENT INCREASE      50
     MAXIMUM CONTACT AUGMENTATIONS FOR *SURFACE BEHAVIOR,AUGMENTED LAGRANGE   50
     CUT-BACK FACTOR AFTER DIVERGENCE                                 0.2500    
     CUT-BACK FACTOR FOR TOO SLOW CONVERGENCE                         0.5000    
     CUT-BACK FACTOR AFTER TOO MANY EQUILIBRIUM ITERATIONS            0.7500    
     CUT-BACK FACTOR AFTER TOO MANY SEVERE DISCONTINUITY ITERATIONS   0.2500    
     CUT-BACK FACTOR AFTER PROBLEMS IN ELEMENT ASSEMBLY               0.2500    
     INCREASE FACTOR AFTER TWO INCREMENTS THAT CONVERGE QUICKLY        1.500    
     MAX. TIME INCREMENT INCREASE FACTOR ALLOWED                       1.500    
     MAX. TIME INCREMENT INCREASE FACTOR ALLOWED (DYNAMICS)            1.250    
     MAX. TIME INCREMENT INCREASE FACTOR ALLOWED (DIFFUSION)           2.000    
     MINIMUM TIME INCREMENT RATIO FOR EXTRAPOLATION TO OCCUR          0.1000    
     MAX. RATIO OF TIME INCREMENT TO STABILITY LIMIT                   1.000    
     FRACTION OF STABILITY LIMIT FOR NEW TIME INCREMENT               0.9500    
     TIME INCREMENT INCREASE FACTOR BEFORE A TIME POINT                1.000    
     GLOBAL STABILIZATION CONTROL IS NOT USED

          PRINT OF INCREMENT NUMBER, TIME, ETC., EVERY    1  INCREMENTS

     THE MAXIMUM NUMBER OF INCREMENTS IN THIS STEP IS                    5000

          LARGE DISPLACEMENT THEORY WILL BE USED

          UNSYMMETRIC MATRIX STORAGE AND SOLUTION WILL BE USED

     LINEAR EXTRAPOLATION WILL BE USED

     CHARACTERISTIC ELEMENT LENGTH      2.00    

     DETAILS REGARDING ACTUAL SOLUTION WAVEFRONT REQUESTED

     DETAILED OUTPUT OF DIAGNOSTICS TO DATABASE REQUESTED

     PRINT OF INCREMENT NUMBER, TIME, ETC., TO THE MESSAGE FILE EVERY     1  INCREMENTS

     ELEMENT OPERATIONS WILL BE CARRIED OUT IN PARALLEL USING   7 THREADS ON 1 DOMAIN

     PARALLEL CONTACT TRACKING ENABLED


     COLLECTING MODEL CONSTRAINT INFORMATION FOR OVERCONSTRAINT CHECKS

     COLLECTING STEP CONSTRAINT INFORMATION FOR OVERCONSTRAINT CHECKS
 
     GPU SOLVER ACCELERATION ENABLED



  INCREMENT     1 STARTS. ATTEMPT NUMBER  1, TIME INCREMENT  8.900E-03
 
     INITIAL ELEMENT LOAD BALANCE
            DOMAIN    1     THREAD    NUMBER OF ELEMENTS
                              1            4
                              2            3
                              3            4
                              4            3
                              5            3
                              6            4
                              7            4
 
	UNSYMMETRIC DIRECT SPARSE SOLVER RUNNING ON
 	1 HOST:        1 MPI RANK  x 7 THREADS, 1 GPU PER RANK
 	NUMBER OF EQUATIONS:     72
 	NUMBER OF RHS:           1
 	NUMBER OF FLOPS:         2.893e+04

     CHECK POINT   START OF SOLVER    

     CHECK POINT  END OF SOLVER       

       ELAPSED USER TIME (SEC)      =  0.10000    
       ELAPSED SYSTEM TIME (SEC)    =  0.10000    
       ELAPSED TOTAL CPU TIME (SEC) =  0.20000    
       ELAPSED WALLCLOCK TIME (SEC) =          0

               CONVERGENCE CHECKS FOR EQUILIBRIUM ITERATION     1


 AVERAGE FORCE                       1.43       TIME AVG. FORCE        1.43    
 LARGEST RESIDUAL FORCE             1.054E-04   AT NODE         35   DOF  2
   INSTANCE: Part Instance                                                                   
 LARGEST INCREMENT OF DISP.         1.644E-04   AT NODE         32   DOF  2
   INSTANCE: Part Instance                                                                   
 LARGEST CORRECTION TO DISP.        1.644E-04   AT NODE         32   DOF  2
   INSTANCE: Part Instance                                                                   
 ESTIMATE OF DISP.    CORRECTION    2.163E-09
 FORCE     EQUILIB. ACCEPTED BASED ON SMALL RESIDUAL AND ESTIMATED CORRECTION

 ITERATION SUMMARY FOR THE INCREMENT:   1 TOTAL ITERATIONS, OF WHICH
   0 ARE SEVERE DISCONTINUITY ITERATIONS AND  1 ARE EQUILIBRIUM ITERATIONS.

 TIME INCREMENT COMPLETED  8.900E-03,  FRACTION OF STEP COMPLETED  8.900E-03
 STEP TIME COMPLETED       8.900E-03,  TOTAL TIME COMPLETED        8.900E-03


  INCREMENT     2 STARTS. ATTEMPT NUMBER  1, TIME INCREMENT  8.900E-03
 
	UNSYMMETRIC DIRECT SPARSE SOLVER RUNNING ON
 	1 HOST:        1 MPI RANK  x 7 THREADS, 1 GPU PER RANK
 	NUMBER OF EQUATIONS:     72
 	NUMBER OF RHS:           1
 	NUMBER OF FLOPS:         2.893e+04

     CHECK POINT   START OF SOLVER    

     CHECK POINT  END OF SOLVER       

       ELAPSED USER TIME (SEC)      =  0.10000    
       ELAPSED SYSTEM TIME (SEC)    =  0.10000    
       ELAPSED TOTAL CPU TIME (SEC) =  0.20000    
       ELAPSED WALLCLOCK TIME (SEC) =          0

               CONVERGENCE CHECKS FOR EQUILIBRIUM ITERATION     1


 AVERAGE FORCE                       4.28       TIME AVG. FORCE        2.86    
 LARGEST RESIDUAL FORCE             5.728E-09   AT NODE         35   DOF  2
   INSTANCE: Part Instance                                                                   
 LARGEST INCREMENT OF DISP.         1.644E-04   AT NODE         36   DOF  2
   INSTANCE: Part Instance                                                                   
 LARGEST CORRECTION TO DISP.        7.151E-09   AT NODE         36   DOF  2
   INSTANCE: Part Instance                                                                   
          THE FORCE     EQUILIBRIUM RESPONSE WAS LINEAR IN THIS INCREMENT

 ITERATION SUMMARY FOR THE INCREMENT:   1 TOTAL ITERATIONS, OF WHICH
   0 ARE SEVERE DISCONTINUITY ITERATIONS AND  1 ARE EQUILIBRIUM ITERATIONS.

 TIME INCREMENT COMPLETED  8.900E-03,  FRACTION OF STEP COMPLETED  1.780E-02
 STEP TIME COMPLETED       1.780E-02,  TOTAL TIME COMPLETED        1.780E-02


  INCREMENT     3 STARTS. ATTEMPT NUMBER  1, TIME INCREMENT  8.900E-03
 
	UNSYMMETRIC DIRECT SPARSE SOLVER RUNNING ON
 	1 HOST:        1 MPI RANK  x 7 THREADS, 1 GPU PER RANK
 	NUMBER OF EQUATIONS:     72
 	NUMBER OF RHS:           1
 	NUMBER OF FLOPS:         2.893e+04

     CHECK POINT   START OF SOLVER    

     CHECK POINT  END OF SOLVER       

       ELAPSED USER TIME (SEC)      =   0.0000    
       ELAPSED SYSTEM TIME (SEC)    =   0.0000    
       ELAPSED TOTAL CPU TIME (SEC) =   0.0000    
       ELAPSED WALLCLOCK TIME (SEC) =          0

               CONVERGENCE CHECKS FOR EQUILIBRIUM ITERATION     1


 AVERAGE FORCE                       6.42       TIME AVG. FORCE        4.05    
 LARGEST RESIDUAL FORCE             3.824E-10   AT NODE         34   DOF  2
   INSTANCE: Part Instance                                                                   
 LARGEST INCREMENT OF DISP.         1.644E-04   AT NODE         35   DOF  2
   INSTANCE: Part Instance                                                                   
 LARGEST CORRECTION TO DISP.        8.246E-10   AT NODE         36   DOF  1
   INSTANCE: Part Instance                                                                   
          THE FORCE     EQUILIBRIUM RESPONSE WAS LINEAR IN THIS INCREMENT

 ITERATION SUMMARY FOR THE INCREMENT:   1 TOTAL ITERATIONS, OF WHICH
   0 ARE SEVERE DISCONTINUITY ITERATIONS AND  1 ARE EQUILIBRIUM ITERATIONS.

 TIME INCREMENT COMPLETED  8.900E-03,  FRACTION OF STEP COMPLETED  2.670E-02
 STEP TIME COMPLETED       2.670E-02,  TOTAL TIME COMPLETED        2.670E-02


  INCREMENT     4 STARTS. ATTEMPT NUMBER  1, TIME INCREMENT  8.900E-03
 
	UNSYMMETRIC DIRECT SPARSE SOLVER RUNNING ON
 	1 HOST:        1 MPI RANK  x 7 THREADS, 1 GPU PER RANK
 	NUMBER OF EQUATIONS:     72
 	NUMBER OF RHS:           1
 	NUMBER OF FLOPS:         2.893e+04

     CHECK POINT   START OF SOLVER    

     CHECK POINT  END OF SOLVER       

       ELAPSED USER TIME (SEC)      =   0.0000    
       ELAPSED SYSTEM TIME (SEC)    =   0.0000    
       ELAPSED TOTAL CPU TIME (SEC) =   0.0000    
       ELAPSED WALLCLOCK TIME (SEC) =          0

               CONVERGENCE CHECKS FOR EQUILIBRIUM ITERATION     1


 AVERAGE FORCE                       8.57       TIME AVG. FORCE        5.18    
 LARGEST RESIDUAL FORCE             2.164E-09   AT NODE         35   DOF  2
   INSTANCE: Part Instance                                                                   
 LARGEST INCREMENT OF DISP.         1.644E-04   AT NODE         32   DOF  2
   INSTANCE: Part Instance                                                                   
 LARGEST CORRECTION TO DISP.        2.702E-09   AT NODE         34   DOF  2
   INSTANCE: Part Instance                                                                   
          THE FORCE     EQUILIBRIUM RESPONSE WAS LINEAR IN THIS INCREMENT

 ITERATION SUMMARY FOR THE INCREMENT:   1 TOTAL ITERATIONS, OF WHICH
   0 ARE SEVERE DISCONTINUITY ITERATIONS AND  1 ARE EQUILIBRIUM ITERATIONS.

 TIME INCREMENT COMPLETED  8.900E-03,  FRACTION OF STEP COMPLETED  3.560E-02
 STEP TIME COMPLETED       3.560E-02,  TOTAL TIME COMPLETED        3.560E-02


  INCREMENT     5 STARTS. ATTEMPT NUMBER  1, TIME INCREMENT  8.900E-03
 
	UNSYMMETRIC DIRECT SPARSE SOLVER RUNNING ON
 	1 HOST:        1 MPI RANK  x 7 THREADS, 1 GPU PER RANK
 	NUMBER OF EQUATIONS:     72
 	NUMBER OF RHS:           1
 	NUMBER OF FLOPS:         2.893e+04

     CHECK POINT   START OF SOLVER    

     CHECK POINT  END OF SOLVER       

       ELAPSED USER TIME (SEC)      =  0.20000    
       ELAPSED SYSTEM TIME (SEC)    =   0.0000    
       ELAPSED TOTAL CPU TIME (SEC) =  0.20000    
       ELAPSED WALLCLOCK TIME (SEC) =          0

               CONVERGENCE CHECKS FOR EQUILIBRIUM ITERATION     1


 AVERAGE FORCE                       10.7       TIME AVG. FORCE        6.28    
 LARGEST RESIDUAL FORCE             2.164E-09   AT NODE         35   DOF  2
   INSTANCE: Part Instance                                                                   
 LARGEST INCREMENT OF DISP.         1.644E-04   AT NODE         32   DOF  2
   INSTANCE: Part Instance                                                                   
 LARGEST CORRECTION TO DISP.        2.702E-09   AT NODE         34   DOF  2
   INSTANCE: Part Instance                                                                   
          THE FORCE     EQUILIBRIUM RESPONSE WAS LINEAR IN THIS INCREMENT

 ITERATION SUMMARY FOR THE INCREMENT:   1 TOTAL ITERATIONS, OF WHICH
   0 ARE SEVERE DISCONTINUITY ITERATIONS AND  1 ARE EQUILIBRIUM ITERATIONS.

 TIME INCREMENT COMPLETED  8.900E-03,  FRACTION OF STEP COMPLETED  4.450E-02
 STEP TIME COMPLETED       4.450E-02,  TOTAL TIME COMPLETED        4.450E-02


  INCREMENT     6 STARTS. ATTEMPT NUMBER  1, TIME INCREMENT  8.900E-03
 
	UNSYMMETRIC DIRECT SPARSE SOLVER RUNNING ON
 	1 HOST:        1 MPI RANK  x 7 THREADS, 1 GPU PER RANK
 	NUMBER OF EQUATIONS:     72
 	NUMBER OF RHS:           1
 	NUMBER OF FLOPS:         2.893e+04

     CHECK POINT   START OF SOLVER    

     CHECK POINT  END OF SOLVER       

       ELAPSED USER TIME (SEC)      =  0.20000    
       ELAPSED SYSTEM TIME (SEC)    =   0.0000    
       ELAPSED TOTAL CPU TIME (SEC) =  0.20000    
       ELAPSED WALLCLOCK TIME (SEC) =          0

               CONVERGENCE CHECKS FOR EQUILIBRIUM ITERATION     1


 AVERAGE FORCE                       12.8       TIME AVG. FORCE        7.38    
 LARGEST RESIDUAL FORCE             2.164E-09   AT NODE         32   DOF  2
   INSTANCE: Part Instance                                                                   
 LARGEST INCREMENT OF DISP.         1.644E-04   AT NODE         36   DOF  2
   INSTANCE: Part Instance                                                                   
 LARGEST CORRECTION TO DISP.        2.702E-09   AT NODE         36   DOF  2
   INSTANCE: Part Instance                                                                   
          THE FORCE     EQUILIBRIUM RESPONSE WAS LINEAR IN THIS INCREMENT

 ITERATION SUMMARY FOR THE INCREMENT:   1 TOTAL ITERATIONS, OF WHICH
   0 ARE SEVERE DISCONTINUITY ITERATIONS AND  1 ARE EQUILIBRIUM ITERATIONS.

 TIME INCREMENT COMPLETED  8.900E-03,  FRACTION OF STEP COMPLETED  5.340E-02
 STEP TIME COMPLETED       5.340E-02,  TOTAL TIME COMPLETED        5.340E-02


  INCREMENT     7 STARTS. ATTEMPT NUMBER  1, TIME INCREMENT  8.900E-03
 
	UNSYMMETRIC DIRECT SPARSE SOLVER RUNNING ON
 	1 HOST:        1 MPI RANK  x 7 THREADS, 1 GPU PER RANK
 	NUMBER OF EQUATIONS:     72
 	NUMBER OF RHS:           1
 	NUMBER OF FLOPS:         2.893e+04

     CHECK POINT   START OF SOLVER    

     CHECK POINT  END OF SOLVER       

       ELAPSED USER TIME (SEC)      =  0.10000    
       ELAPSED SYSTEM TIME (SEC)    =   0.0000    
       ELAPSED TOTAL CPU TIME (SEC) =  0.10000    
       ELAPSED WALLCLOCK TIME (SEC) =          0

               CONVERGENCE CHECKS FOR EQUILIBRIUM ITERATION     1


 AVERAGE FORCE                       15.0       TIME AVG. FORCE        8.46    
 LARGEST RESIDUAL FORCE             2.164E-09   AT NODE         33   DOF  2
   INSTANCE: Part Instance                                                                   
 LARGEST INCREMENT OF DISP.         1.644E-04   AT NODE         36   DOF  2
   INSTANCE: Part Instance                                                                   
 LARGEST CORRECTION TO DISP.        2.702E-09   AT NODE         32   DOF  2
   INSTANCE: Part Instance                                                                   
          THE FORCE     EQUILIBRIUM RESPONSE WAS LINEAR IN THIS INCREMENT

 ITERATION SUMMARY FOR THE INCREMENT:   1 TOTAL ITERATIONS, OF WHICH
   0 ARE SEVERE DISCONTINUITY ITERATIONS AND  1 ARE EQUILIBRIUM ITERATIONS.

 TIME INCREMENT COMPLETED  8.900E-03,  FRACTION OF STEP COMPLETED  6.230E-02
 STEP TIME COMPLETED       6.230E-02,  TOTAL TIME COMPLETED        6.230E-02


  INCREMENT     8 STARTS. ATTEMPT NUMBER  1, TIME INCREMENT  8.900E-03
 
	UNSYMMETRIC DIRECT SPARSE SOLVER RUNNING ON
 	1 HOST:        1 MPI RANK  x 7 THREADS, 1 GPU PER RANK
 	NUMBER OF EQUATIONS:     72
 	NUMBER OF RHS:           1
 	NUMBER OF FLOPS:         2.893e+04

     CHECK POINT   START OF SOLVER    

     CHECK POINT  END OF SOLVER       

       ELAPSED USER TIME (SEC)      =  0.10000    
       ELAPSED SYSTEM TIME (SEC)    =   0.0000    
       ELAPSED TOTAL CPU TIME (SEC) =  0.10000    
       ELAPSED WALLCLOCK TIME (SEC) =          0

               CONVERGENCE CHECKS FOR EQUILIBRIUM ITERATION     1


 AVERAGE FORCE                       17.1       TIME AVG. FORCE        9.55    
 LARGEST RESIDUAL FORCE             2.164E-09   AT NODE         35   DOF  2
   INSTANCE: Part Instance                                                                   
 LARGEST INCREMENT OF DISP.         1.644E-04   AT NODE         36   DOF  2
   INSTANCE: Part Instance                                                                   
 LARGEST CORRECTION TO DISP.        2.702E-09   AT NODE         34   DOF  2
   INSTANCE: Part Instance                                                                   
          THE FORCE     EQUILIBRIUM RESPONSE WAS LINEAR IN THIS INCREMENT

 ITERATION SUMMARY FOR THE INCREMENT:   1 TOTAL ITERATIONS, OF WHICH
   0 ARE SEVERE DISCONTINUITY ITERATIONS AND  1 ARE EQUILIBRIUM ITERATIONS.

 TIME INCREMENT COMPLETED  8.900E-03,  FRACTION OF STEP COMPLETED  7.120E-02
 STEP TIME COMPLETED       7.120E-02,  TOTAL TIME COMPLETED        7.120E-02


  INCREMENT     9 STARTS. ATTEMPT NUMBER  1, TIME INCREMENT  8.900E-03
 
	UNSYMMETRIC DIRECT SPARSE SOLVER RUNNING ON
 	1 HOST:        1 MPI RANK  x 7 THREADS, 1 GPU PER RANK
 	NUMBER OF EQUATIONS:     72
 	NUMBER OF RHS:           1
 	NUMBER OF FLOPS:         2.893e+04

     CHECK POINT   START OF SOLVER    

     CHECK POINT  END OF SOLVER       

       ELAPSED USER TIME (SEC)      =  0.10000    
       ELAPSED SYSTEM TIME (SEC)    =   0.0000    
       ELAPSED TOTAL CPU TIME (SEC) =  0.10000    
       ELAPSED WALLCLOCK TIME (SEC) =          0

               CONVERGENCE CHECKS FOR EQUILIBRIUM ITERATION     1


 AVERAGE FORCE                       19.3       TIME AVG. FORCE        10.6    
 LARGEST RESIDUAL FORCE             2.164E-09   AT NODE         32   DOF  2
   INSTANCE: Part Instance                                                                   
 LARGEST INCREMENT OF DISP.         1.644E-04   AT NODE         35   DOF  2
   INSTANCE: Part Instance                                                                   
 LARGEST CORRECTION TO DISP.        2.702E-09   AT NODE         35   DOF  2
   INSTANCE: Part Instance                                                                   
          THE FORCE     EQUILIBRIUM RESPONSE WAS LINEAR IN THIS INCREMENT

 ITERATION SUMMARY FOR THE INCREMENT:   1 TOTAL ITERATIONS, OF WHICH
   0 ARE SEVERE DISCONTINUITY ITERATIONS AND  1 ARE EQUILIBRIUM ITERATIONS.

 TIME INCREMENT COMPLETED  8.900E-03,  FRACTION OF STEP COMPLETED  8.010E-02
 STEP TIME COMPLETED       8.010E-02,  TOTAL TIME COMPLETED        8.010E-02


  INCREMENT    10 STARTS. ATTEMPT NUMBER  1, TIME INCREMENT  8.900E-03
 
	UNSYMMETRIC DIRECT SPARSE SOLVER RUNNING ON
 	1 HOST:        1 MPI RANK  x 7 THREADS, 1 GPU PER RANK
 	NUMBER OF EQUATIONS:     72
 	NUMBER OF RHS:           1
 	NUMBER OF FLOPS:         2.893e+04

     CHECK POINT   START OF SOLVER    

     CHECK POINT  END OF SOLVER       

       ELAPSED USER TIME (SEC)      =  0.10000    
       ELAPSED SYSTEM TIME (SEC)    =   0.0000    
       ELAPSED TOTAL CPU TIME (SEC) =  0.10000    
       ELAPSED WALLCLOCK TIME (SEC) =          0

               CONVERGENCE CHECKS FOR EQUILIBRIUM ITERATION     1


 AVERAGE FORCE                       21.4       TIME AVG. FORCE        11.7    
 LARGEST RESIDUAL FORCE             2.164E-09   AT NODE         33   DOF  2
   INSTANCE: Part Instance                                                                   
 LARGEST INCREMENT OF DISP.         1.644E-04   AT NODE         31   DOF  2
   INSTANCE: Part Instance                                                                   
 LARGEST CORRECTION TO DISP.        2.702E-09   AT NODE         36   DOF  2
   INSTANCE: Part Instance                                                                   
          THE FORCE     EQUILIBRIUM RESPONSE WAS LINEAR IN THIS INCREMENT

 ITERATION SUMMARY FOR THE INCREMENT:   1 TOTAL ITERATIONS, OF WHICH
   0 ARE SEVERE DISCONTINUITY ITERATIONS AND  1 ARE EQUILIBRIUM ITERATIONS.

 TIME INCREMENT COMPLETED  8.900E-03,  FRACTION OF STEP COMPLETED  8.900E-02
 STEP TIME COMPLETED       8.900E-02,  TOTAL TIME COMPLETED        8.900E-02


  INCREMENT    11 STARTS. ATTEMPT NUMBER  1, TIME INCREMENT  8.900E-03
 
	UNSYMMETRIC DIRECT SPARSE SOLVER RUNNING ON
 	1 HOST:        1 MPI RANK  x 7 THREADS, 1 GPU PER RANK
 	NUMBER OF EQUATIONS:     72
 	NUMBER OF RHS:           1
 	NUMBER OF FLOPS:         2.893e+04

     CHECK POINT   START OF SOLVER    

     CHECK POINT  END OF SOLVER       

       ELAPSED USER TIME (SEC)      =  0.10000    
       ELAPSED SYSTEM TIME (SEC)    =   0.0000    
       ELAPSED TOTAL CPU TIME (SEC) =  0.10000    
       ELAPSED WALLCLOCK TIME (SEC) =          0

               CONVERGENCE CHECKS FOR EQUILIBRIUM ITERATION     1


 AVERAGE FORCE                       23.6       TIME AVG. FORCE        12.8    
 LARGEST RESIDUAL FORCE             2.164E-09   AT NODE         32   DOF  2
   INSTANCE: Part Instance                                                                   
 LARGEST INCREMENT OF DISP.         1.644E-04   AT NODE         36   DOF  2
   INSTANCE: Part Instance                                                                   
 LARGEST CORRECTION TO DISP.        2.702E-09   AT NODE         36   DOF  2
   INSTANCE: Part Instance                                                                   
          THE FORCE     EQUILIBRIUM RESPONSE WAS LINEAR IN THIS INCREMENT

 ITERATION SUMMARY FOR THE INCREMENT:   1 TOTAL ITERATIONS, OF WHICH
   0 ARE SEVERE DISCONTINUITY ITERATIONS AND  1 ARE EQUILIBRIUM ITERATIONS.

 TIME INCREMENT COMPLETED  8.900E-03,  FRACTION OF STEP COMPLETED  9.790E-02
 STEP TIME COMPLETED       9.790E-02,  TOTAL TIME COMPLETED        9.790E-02


  INCREMENT    12 STARTS. ATTEMPT NUMBER  1, TIME INCREMENT  8.900E-03
 
	UNSYMMETRIC DIRECT SPARSE SOLVER RUNNING ON
 	1 HOST:        1 MPI RANK  x 7 THREADS, 1 GPU PER RANK
 	NUMBER OF EQUATIONS:     72
 	NUMBER OF RHS:           1
 	NUMBER OF FLOPS:         2.893e+04

     CHECK POINT   START OF SOLVER    

     CHECK POINT  END OF SOLVER       

       ELAPSED USER TIME (SEC)      =  0.10000    
       ELAPSED SYSTEM TIME (SEC)    =   0.0000    
       ELAPSED TOTAL CPU TIME (SEC) =  0.10000    
       ELAPSED WALLCLOCK TIME (SEC) =          0

               CONVERGENCE CHECKS FOR EQUILIBRIUM ITERATION     1


 AVERAGE FORCE                       25.7       TIME AVG. FORCE        13.9    
 LARGEST RESIDUAL FORCE             2.164E-09   AT NODE         33   DOF  2
   INSTANCE: Part Instance                                                                   
 LARGEST INCREMENT OF DISP.         1.644E-04   AT NODE         31   DOF  2
   INSTANCE: Part Instance                                                                   
 LARGEST CORRECTION TO DISP.        2.702E-09   AT NODE         31   DOF  2
   INSTANCE: Part Instance                                                                   
          THE FORCE     EQUILIBRIUM RESPONSE WAS LINEAR IN THIS INCREMENT

 ITERATION SUMMARY FOR THE INCREMENT:   1 TOTAL ITERATIONS, OF WHICH
   0 ARE SEVERE DISCONTINUITY ITERATIONS AND  1 ARE EQUILIBRIUM ITERATIONS.

 TIME INCREMENT COMPLETED  8.900E-03,  FRACTION OF STEP COMPLETED  0.107    
 STEP TIME COMPLETED       0.107    ,  TOTAL TIME COMPLETED        0.107    


  INCREMENT    13 STARTS. ATTEMPT NUMBER  1, TIME INCREMENT  8.900E-03
 
	UNSYMMETRIC DIRECT SPARSE SOLVER RUNNING ON
 	1 HOST:        1 MPI RANK  x 7 THREADS, 1 GPU PER RANK
 	NUMBER OF EQUATIONS:     72
 	NUMBER OF RHS:           1
 	NUMBER OF FLOPS:         2.893e+04

     CHECK POINT   START OF SOLVER    

     CHECK POINT  END OF SOLVER       

       ELAPSED USER TIME (SEC)      =   0.0000    
       ELAPSED SYSTEM TIME (SEC)    =   0.0000    
       ELAPSED TOTAL CPU TIME (SEC) =   0.0000    
       ELAPSED WALLCLOCK TIME (SEC) =          0

               CONVERGENCE CHECKS FOR EQUILIBRIUM ITERATION     1


 AVERAGE FORCE                       27.8       TIME AVG. FORCE        14.9    
 LARGEST RESIDUAL FORCE             2.164E-09   AT NODE         35   DOF  2
   INSTANCE: Part Instance                                                                   
 LARGEST INCREMENT OF DISP.         1.644E-04   AT NODE         32   DOF  2
   INSTANCE: Part Instance                                                                   
 LARGEST CORRECTION TO DISP.        2.702E-09   AT NODE         32   DOF  2
   INSTANCE: Part Instance                                                                   
          THE FORCE     EQUILIBRIUM RESPONSE WAS LINEAR IN THIS INCREMENT

 ITERATION SUMMARY FOR THE INCREMENT:   1 TOTAL ITERATIONS, OF WHICH
   0 ARE SEVERE DISCONTINUITY ITERATIONS AND  1 ARE EQUILIBRIUM ITERATIONS.

 TIME INCREMENT COMPLETED  8.900E-03,  FRACTION OF STEP COMPLETED  0.116    
 STEP TIME COMPLETED       0.116    ,  TOTAL TIME COMPLETED        0.116    


  INCREMENT    14 STARTS. ATTEMPT NUMBER  1, TIME INCREMENT  8.900E-03
 
	UNSYMMETRIC DIRECT SPARSE SOLVER RUNNING ON
 	1 HOST:        1 MPI RANK  x 7 THREADS, 1 GPU PER RANK
 	NUMBER OF EQUATIONS:     72
 	NUMBER OF RHS:           1
 	NUMBER OF FLOPS:         2.893e+04

     CHECK POINT   START OF SOLVER    

     CHECK POINT  END OF SOLVER       

       ELAPSED USER TIME (SEC)      =  0.10000    
       ELAPSED SYSTEM TIME (SEC)    =   0.0000    
       ELAPSED TOTAL CPU TIME (SEC) =  0.10000    
       ELAPSED WALLCLOCK TIME (SEC) =          0

               CONVERGENCE CHECKS FOR EQUILIBRIUM ITERATION     1


 AVERAGE FORCE                       30.0       TIME AVG. FORCE        16.0    
 LARGEST RESIDUAL FORCE             2.164E-09   AT NODE         35   DOF  2
   INSTANCE: Part Instance                                                                   
 LARGEST INCREMENT OF DISP.         1.644E-04   AT NODE         36   DOF  2
   INSTANCE: Part Instance                                                                   
 LARGEST CORRECTION TO DISP.        2.702E-09   AT NODE         36   DOF  2
   INSTANCE: Part Instance                                                                   
          THE FORCE     EQUILIBRIUM RESPONSE WAS LINEAR IN THIS INCREMENT

 ITERATION SUMMARY FOR THE INCREMENT:   1 TOTAL ITERATIONS, OF WHICH
   0 ARE SEVERE DISCONTINUITY ITERATIONS AND  1 ARE EQUILIBRIUM ITERATIONS.

 TIME INCREMENT COMPLETED  8.900E-03,  FRACTION OF STEP COMPLETED  0.125    
 STEP TIME COMPLETED       0.125    ,  TOTAL TIME COMPLETED        0.125    


  INCREMENT    15 STARTS. ATTEMPT NUMBER  1, TIME INCREMENT  8.900E-03
 
	UNSYMMETRIC DIRECT SPARSE SOLVER RUNNING ON
 	1 HOST:        1 MPI RANK  x 7 THREADS, 1 GPU PER RANK
 	NUMBER OF EQUATIONS:     72
 	NUMBER OF RHS:           1
 	NUMBER OF FLOPS:         2.893e+04

     CHECK POINT   START OF SOLVER    

     CHECK POINT  END OF SOLVER       

       ELAPSED USER TIME (SEC)      =  0.10000    
       ELAPSED SYSTEM TIME (SEC)    =   0.0000    
       ELAPSED TOTAL CPU TIME (SEC) =  0.10000    
       ELAPSED WALLCLOCK TIME (SEC) =          0

               CONVERGENCE CHECKS FOR EQUILIBRIUM ITERATION     1


 AVERAGE FORCE                       32.1       TIME AVG. FORCE        17.1    
 LARGEST RESIDUAL FORCE             2.164E-09   AT NODE         35   DOF  2
   INSTANCE: Part Instance                                                                   
 LARGEST INCREMENT OF DISP.         1.644E-04   AT NODE         36   DOF  2
   INSTANCE: Part Instance                                                                   
 LARGEST CORRECTION TO DISP.        2.702E-09   AT NODE         33   DOF  2
   INSTANCE: Part Instance                                                                   
          THE FORCE     EQUILIBRIUM RESPONSE WAS LINEAR IN THIS INCREMENT

 ITERATION SUMMARY FOR THE INCREMENT:   1 TOTAL ITERATIONS, OF WHICH
   0 ARE SEVERE DISCONTINUITY ITERATIONS AND  1 ARE EQUILIBRIUM ITERATIONS.

 TIME INCREMENT COMPLETED  8.900E-03,  FRACTION OF STEP COMPLETED  0.134    
 STEP TIME COMPLETED       0.134    ,  TOTAL TIME COMPLETED        0.134    


  INCREMENT    16 STARTS. ATTEMPT NUMBER  1, TIME INCREMENT  8.900E-03
 
	UNSYMMETRIC DIRECT SPARSE SOLVER RUNNING ON
 	1 HOST:        1 MPI RANK  x 7 THREADS, 1 GPU PER RANK
 	NUMBER OF EQUATIONS:     72
 	NUMBER OF RHS:           1
 	NUMBER OF FLOPS:         2.893e+04

     CHECK POINT   START OF SOLVER    

     CHECK POINT  END OF SOLVER       

       ELAPSED USER TIME (SEC)      =   0.0000    
       ELAPSED SYSTEM TIME (SEC)    =   0.0000    
       ELAPSED TOTAL CPU TIME (SEC) =   0.0000    
       ELAPSED WALLCLOCK TIME (SEC) =          0

               CONVERGENCE CHECKS FOR EQUILIBRIUM ITERATION     1


 AVERAGE FORCE                       34.3       TIME AVG. FORCE        18.2    
 LARGEST RESIDUAL FORCE             2.164E-09   AT NODE         32   DOF  2
   INSTANCE: Part Instance                                                                   
 LARGEST INCREMENT OF DISP.         1.644E-04   AT NODE         35   DOF  2
   INSTANCE: Part Instance                                                                   
 LARGEST CORRECTION TO DISP.        2.702E-09   AT NODE         35   DOF  2
   INSTANCE: Part Instance                                                                   
          THE FORCE     EQUILIBRIUM RESPONSE WAS LINEAR IN THIS INCREMENT

 ITERATION SUMMARY FOR THE INCREMENT:   1 TOTAL ITERATIONS, OF WHICH
   0 ARE SEVERE DISCONTINUITY ITERATIONS AND  1 ARE EQUILIBRIUM ITERATIONS.

 TIME INCREMENT COMPLETED  8.900E-03,  FRACTION OF STEP COMPLETED  0.142    
 STEP TIME COMPLETED       0.142    ,  TOTAL TIME COMPLETED        0.142    


  INCREMENT    17 STARTS. ATTEMPT NUMBER  1, TIME INCREMENT  8.900E-03
 
	UNSYMMETRIC DIRECT SPARSE SOLVER RUNNING ON
 	1 HOST:        1 MPI RANK  x 7 THREADS, 1 GPU PER RANK
 	NUMBER OF EQUATIONS:     72
 	NUMBER OF RHS:           1
 	NUMBER OF FLOPS:         2.893e+04

     CHECK POINT   START OF SOLVER    

     CHECK POINT  END OF SOLVER       

       ELAPSED USER TIME (SEC)      =   0.0000    
       ELAPSED SYSTEM TIME (SEC)    =   0.0000    
       ELAPSED TOTAL CPU TIME (SEC) =   0.0000    
       ELAPSED WALLCLOCK TIME (SEC) =          0

               CONVERGENCE CHECKS FOR EQUILIBRIUM ITERATION     1


 AVERAGE FORCE                       36.4       TIME AVG. FORCE        19.2    
 LARGEST RESIDUAL FORCE             2.164E-09   AT NODE         35   DOF  2
   INSTANCE: Part Instance                                                                   
 LARGEST INCREMENT OF DISP.         1.644E-04   AT NODE         31   DOF  2
   INSTANCE: Part Instance                                                                   
 LARGEST CORRECTION TO DISP.        2.702E-09   AT NODE         31   DOF  2
   INSTANCE: Part Instance                                                                   
          THE FORCE     EQUILIBRIUM RESPONSE WAS LINEAR IN THIS INCREMENT

 ITERATION SUMMARY FOR THE INCREMENT:   1 TOTAL ITERATIONS, OF WHICH
   0 ARE SEVERE DISCONTINUITY ITERATIONS AND  1 ARE EQUILIBRIUM ITERATIONS.

 TIME INCREMENT COMPLETED  8.900E-03,  FRACTION OF STEP COMPLETED  0.151    
 STEP TIME COMPLETED       0.151    ,  TOTAL TIME COMPLETED        0.151    


  INCREMENT    18 STARTS. ATTEMPT NUMBER  1, TIME INCREMENT  8.900E-03
 
	UNSYMMETRIC DIRECT SPARSE SOLVER RUNNING ON
 	1 HOST:        1 MPI RANK  x 7 THREADS, 1 GPU PER RANK
 	NUMBER OF EQUATIONS:     72
 	NUMBER OF RHS:           1
 	NUMBER OF FLOPS:         2.893e+04

     CHECK POINT   START OF SOLVER    

     CHECK POINT  END OF SOLVER       

       ELAPSED USER TIME (SEC)      =   0.0000    
       ELAPSED SYSTEM TIME (SEC)    =   0.0000    
       ELAPSED TOTAL CPU TIME (SEC) =   0.0000    
       ELAPSED WALLCLOCK TIME (SEC) =          0

               CONVERGENCE CHECKS FOR EQUILIBRIUM ITERATION     1


 AVERAGE FORCE                       38.5       TIME AVG. FORCE        20.3    
 LARGEST RESIDUAL FORCE             2.164E-09   AT NODE         35   DOF  2
   INSTANCE: Part Instance                                                                   
 LARGEST INCREMENT OF DISP.         1.644E-04   AT NODE         36   DOF  2
   INSTANCE: Part Instance                                                                   
 LARGEST CORRECTION TO DISP.        2.703E-09   AT NODE         36   DOF  2
   INSTANCE: Part Instance                                                                   
          THE FORCE     EQUILIBRIUM RESPONSE WAS LINEAR IN THIS INCREMENT

 ITERATION SUMMARY FOR THE INCREMENT:   1 TOTAL ITERATIONS, OF WHICH
   0 ARE SEVERE DISCONTINUITY ITERATIONS AND  1 ARE EQUILIBRIUM ITERATIONS.

 TIME INCREMENT COMPLETED  8.900E-03,  FRACTION OF STEP COMPLETED  0.160    
 STEP TIME COMPLETED       0.160    ,  TOTAL TIME COMPLETED        0.160    


  INCREMENT    19 STARTS. ATTEMPT NUMBER  1, TIME INCREMENT  8.900E-03
 
	UNSYMMETRIC DIRECT SPARSE SOLVER RUNNING ON
 	1 HOST:        1 MPI RANK  x 7 THREADS, 1 GPU PER RANK
 	NUMBER OF EQUATIONS:     72
 	NUMBER OF RHS:           1
 	NUMBER OF FLOPS:         2.893e+04

     CHECK POINT   START OF SOLVER    

     CHECK POINT  END OF SOLVER       

       ELAPSED USER TIME (SEC)      =   0.0000    
       ELAPSED SYSTEM TIME (SEC)    =   0.0000    
       ELAPSED TOTAL CPU TIME (SEC) =   0.0000    
       ELAPSED WALLCLOCK TIME (SEC) =          0

               CONVERGENCE CHECKS FOR EQUILIBRIUM ITERATION     1


 AVERAGE FORCE                       40.7       TIME AVG. FORCE        21.4    
 LARGEST RESIDUAL FORCE             2.164E-09   AT NODE         32   DOF  2
   INSTANCE: Part Instance                                                                   
 LARGEST INCREMENT OF DISP.         1.644E-04   AT NODE         31   DOF  2
   INSTANCE: Part Instance                                                                   
 LARGEST CORRECTION TO DISP.        2.703E-09   AT NODE         31   DOF  2
   INSTANCE: Part Instance                                                                   
          THE FORCE     EQUILIBRIUM RESPONSE WAS LINEAR IN THIS INCREMENT

 ITERATION SUMMARY FOR THE INCREMENT:   1 TOTAL ITERATIONS, OF WHICH
   0 ARE SEVERE DISCONTINUITY ITERATIONS AND  1 ARE EQUILIBRIUM ITERATIONS.

 TIME INCREMENT COMPLETED  8.900E-03,  FRACTION OF STEP COMPLETED  0.169    
 STEP TIME COMPLETED       0.169    ,  TOTAL TIME COMPLETED        0.169    


  INCREMENT    20 STARTS. ATTEMPT NUMBER  1, TIME INCREMENT  8.900E-03
 
	UNSYMMETRIC DIRECT SPARSE SOLVER RUNNING ON
 	1 HOST:        1 MPI RANK  x 7 THREADS, 1 GPU PER RANK
 	NUMBER OF EQUATIONS:     72
 	NUMBER OF RHS:           1
 	NUMBER OF FLOPS:         2.893e+04

     CHECK POINT   START OF SOLVER    

     CHECK POINT  END OF SOLVER       

       ELAPSED USER TIME (SEC)      =   0.0000    
       ELAPSED SYSTEM TIME (SEC)    =   0.0000    
       ELAPSED TOTAL CPU TIME (SEC) =   0.0000    
       ELAPSED WALLCLOCK TIME (SEC) =          0

               CONVERGENCE CHECKS FOR EQUILIBRIUM ITERATION     1


 AVERAGE FORCE                       42.8       TIME AVG. FORCE        22.5    
 LARGEST RESIDUAL FORCE             2.164E-09   AT NODE         34   DOF  2
   INSTANCE: Part Instance                                                                   
 LARGEST INCREMENT OF DISP.         1.644E-04   AT NODE         36   DOF  2
   INSTANCE: Part Instance                                                                   
 LARGEST CORRECTION TO DISP.        2.703E-09   AT NODE         36   DOF  2
   INSTANCE: Part Instance                                                                   
          THE FORCE     EQUILIBRIUM RESPONSE WAS LINEAR IN THIS INCREMENT

 ITERATION SUMMARY FOR THE INCREMENT:   1 TOTAL ITERATIONS, OF WHICH
   0 ARE SEVERE DISCONTINUITY ITERATIONS AND  1 ARE EQUILIBRIUM ITERATIONS.

 TIME INCREMENT COMPLETED  8.900E-03,  FRACTION OF STEP COMPLETED  0.178    
 STEP TIME COMPLETED       0.178    ,  TOTAL TIME COMPLETED        0.178    


  INCREMENT    21 STARTS. ATTEMPT NUMBER  1, TIME INCREMENT  8.900E-03
 
	UNSYMMETRIC DIRECT SPARSE SOLVER RUNNING ON
 	1 HOST:        1 MPI RANK  x 7 THREADS, 1 GPU PER RANK
 	NUMBER OF EQUATIONS:     72
 	NUMBER OF RHS:           1
 	NUMBER OF FLOPS:         2.893e+04

     CHECK POINT   START OF SOLVER    

     CHECK POINT  END OF SOLVER       

       ELAPSED USER TIME (SEC)      =   0.0000    
       ELAPSED SYSTEM TIME (SEC)    =  0.10000    
       ELAPSED TOTAL CPU TIME (SEC) =  0.10000    
       ELAPSED WALLCLOCK TIME (SEC) =          0

               CONVERGENCE CHECKS FOR EQUILIBRIUM ITERATION     1


 AVERAGE FORCE                       45.0       TIME AVG. FORCE        23.5    
 LARGEST RESIDUAL FORCE             2.164E-09   AT NODE         32   DOF  2
   INSTANCE: Part Instance                                                                   
 LARGEST INCREMENT OF DISP.         1.644E-04   AT NODE         32   DOF  2
   INSTANCE: Part Instance                                                                   
 LARGEST CORRECTION TO DISP.        2.703E-09   AT NODE         32   DOF  2
   INSTANCE: Part Instance                                                                   
          THE FORCE     EQUILIBRIUM RESPONSE WAS LINEAR IN THIS INCREMENT

 ITERATION SUMMARY FOR THE INCREMENT:   1 TOTAL ITERATIONS, OF WHICH
   0 ARE SEVERE DISCONTINUITY ITERATIONS AND  1 ARE EQUILIBRIUM ITERATIONS.

 TIME INCREMENT COMPLETED  8.900E-03,  FRACTION OF STEP COMPLETED  0.187    
 STEP TIME COMPLETED       0.187    ,  TOTAL TIME COMPLETED        0.187    


  INCREMENT    22 STARTS. ATTEMPT NUMBER  1, TIME INCREMENT  8.900E-03
 
	UNSYMMETRIC DIRECT SPARSE SOLVER RUNNING ON
 	1 HOST:        1 MPI RANK  x 7 THREADS, 1 GPU PER RANK
 	NUMBER OF EQUATIONS:     72
 	NUMBER OF RHS:           1
 	NUMBER OF FLOPS:         2.893e+04

     CHECK POINT   START OF SOLVER    

     CHECK POINT  END OF SOLVER       

       ELAPSED USER TIME (SEC)      =  0.10000    
       ELAPSED SYSTEM TIME (SEC)    =   0.0000    
       ELAPSED TOTAL CPU TIME (SEC) =  0.10000    
       ELAPSED WALLCLOCK TIME (SEC) =          0

               CONVERGENCE CHECKS FOR EQUILIBRIUM ITERATION     1


 AVERAGE FORCE                       47.1       TIME AVG. FORCE        24.6    
 LARGEST RESIDUAL FORCE             2.164E-09   AT NODE         34   DOF  2
   INSTANCE: Part Instance                                                                   
 LARGEST INCREMENT OF DISP.         1.644E-04   AT NODE         34   DOF  2
   INSTANCE: Part Instance                                                                   
 LARGEST CORRECTION TO DISP.        2.703E-09   AT NODE         36   DOF  2
   INSTANCE: Part Instance                                                                   
          THE FORCE     EQUILIBRIUM RESPONSE WAS LINEAR IN THIS INCREMENT

 ITERATION SUMMARY FOR THE INCREMENT:   1 TOTAL ITERATIONS, OF WHICH
   0 ARE SEVERE DISCONTINUITY ITERATIONS AND  1 ARE EQUILIBRIUM ITERATIONS.

 TIME INCREMENT COMPLETED  8.900E-03,  FRACTION OF STEP COMPLETED  0.196    
 STEP TIME COMPLETED       0.196    ,  TOTAL TIME COMPLETED        0.196    


  INCREMENT    23 STARTS. ATTEMPT NUMBER  1, TIME INCREMENT  8.900E-03
 
	UNSYMMETRIC DIRECT SPARSE SOLVER RUNNING ON
 	1 HOST:        1 MPI RANK  x 7 THREADS, 1 GPU PER RANK
 	NUMBER OF EQUATIONS:     72
 	NUMBER OF RHS:           1
 	NUMBER OF FLOPS:         2.893e+04

     CHECK POINT   START OF SOLVER    

     CHECK POINT  END OF SOLVER       

       ELAPSED USER TIME (SEC)      =  0.10000    
       ELAPSED SYSTEM TIME (SEC)    =   0.0000    
       ELAPSED TOTAL CPU TIME (SEC) =  0.10000    
       ELAPSED WALLCLOCK TIME (SEC) =          0

               CONVERGENCE CHECKS FOR EQUILIBRIUM ITERATION     1


 AVERAGE FORCE                       49.3       TIME AVG. FORCE        25.7    
 LARGEST RESIDUAL FORCE             2.164E-09   AT NODE         33   DOF  2
   INSTANCE: Part Instance                                                                   
 LARGEST INCREMENT OF DISP.         1.644E-04   AT NODE         36   DOF  2
   INSTANCE: Part Instance                                                                   
 LARGEST CORRECTION TO DISP.        2.703E-09   AT NODE         35   DOF  2
   INSTANCE: Part Instance                                                                   
          THE FORCE     EQUILIBRIUM RESPONSE WAS LINEAR IN THIS INCREMENT

 ITERATION SUMMARY FOR THE INCREMENT:   1 TOTAL ITERATIONS, OF WHICH
   0 ARE SEVERE DISCONTINUITY ITERATIONS AND  1 ARE EQUILIBRIUM ITERATIONS.

 TIME INCREMENT COMPLETED  8.900E-03,  FRACTION OF STEP COMPLETED  0.205    
 STEP TIME COMPLETED       0.205    ,  TOTAL TIME COMPLETED        0.205    


  INCREMENT    24 STARTS. ATTEMPT NUMBER  1, TIME INCREMENT  8.900E-03
 
	UNSYMMETRIC DIRECT SPARSE SOLVER RUNNING ON
 	1 HOST:        1 MPI RANK  x 7 THREADS, 1 GPU PER RANK
 	NUMBER OF EQUATIONS:     72
 	NUMBER OF RHS:           1
 	NUMBER OF FLOPS:         2.893e+04

     CHECK POINT   START OF SOLVER    

     CHECK POINT  END OF SOLVER       

       ELAPSED USER TIME (SEC)      =   0.0000    
       ELAPSED SYSTEM TIME (SEC)    =   0.0000    
       ELAPSED TOTAL CPU TIME (SEC) =   0.0000    
       ELAPSED WALLCLOCK TIME (SEC) =          0

               CONVERGENCE CHECKS FOR EQUILIBRIUM ITERATION     1


 AVERAGE FORCE                       51.4       TIME AVG. FORCE        26.7    
 LARGEST RESIDUAL FORCE             2.164E-09   AT NODE         32   DOF  2
   INSTANCE: Part Instance                                                                   
 LARGEST INCREMENT OF DISP.         1.644E-04   AT NODE         33   DOF  2
   INSTANCE: Part Instance                                                                   
 LARGEST CORRECTION TO DISP.        2.703E-09   AT NODE         33   DOF  2
   INSTANCE: Part Instance                                                                   
          THE FORCE     EQUILIBRIUM RESPONSE WAS LINEAR IN THIS INCREMENT

 ITERATION SUMMARY FOR THE INCREMENT:   1 TOTAL ITERATIONS, OF WHICH
   0 ARE SEVERE DISCONTINUITY ITERATIONS AND  1 ARE EQUILIBRIUM ITERATIONS.

 TIME INCREMENT COMPLETED  8.900E-03,  FRACTION OF STEP COMPLETED  0.214    
 STEP TIME COMPLETED       0.214    ,  TOTAL TIME COMPLETED        0.214    


  INCREMENT    25 STARTS. ATTEMPT NUMBER  1, TIME INCREMENT  8.900E-03
 
	UNSYMMETRIC DIRECT SPARSE SOLVER RUNNING ON
 	1 HOST:        1 MPI RANK  x 7 THREADS, 1 GPU PER RANK
 	NUMBER OF EQUATIONS:     72
 	NUMBER OF RHS:           1
 	NUMBER OF FLOPS:         2.893e+04

     CHECK POINT   START OF SOLVER    

     CHECK POINT  END OF SOLVER       

       ELAPSED USER TIME (SEC)      =  0.10000    
       ELAPSED SYSTEM TIME (SEC)    =   0.0000    
       ELAPSED TOTAL CPU TIME (SEC) =  0.10000    
       ELAPSED WALLCLOCK TIME (SEC) =          0

               CONVERGENCE CHECKS FOR EQUILIBRIUM ITERATION     1


 AVERAGE FORCE                       53.5       TIME AVG. FORCE        27.8    
 LARGEST RESIDUAL FORCE             2.164E-09   AT NODE         34   DOF  2
   INSTANCE: Part Instance                                                                   
 LARGEST INCREMENT OF DISP.         1.644E-04   AT NODE         36   DOF  2
   INSTANCE: Part Instance                                                                   
 LARGEST CORRECTION TO DISP.        2.703E-09   AT NODE         36   DOF  2
   INSTANCE: Part Instance                                                                   
          THE FORCE     EQUILIBRIUM RESPONSE WAS LINEAR IN THIS INCREMENT

 ITERATION SUMMARY FOR THE INCREMENT:   1 TOTAL ITERATIONS, OF WHICH
   0 ARE SEVERE DISCONTINUITY ITERATIONS AND  1 ARE EQUILIBRIUM ITERATIONS.

 TIME INCREMENT COMPLETED  8.900E-03,  FRACTION OF STEP COMPLETED  0.222    
 STEP TIME COMPLETED       0.222    ,  TOTAL TIME COMPLETED        0.222    


  INCREMENT    26 STARTS. ATTEMPT NUMBER  1, TIME INCREMENT  8.900E-03
 
	UNSYMMETRIC DIRECT SPARSE SOLVER RUNNING ON
 	1 HOST:        1 MPI RANK  x 7 THREADS, 1 GPU PER RANK
 	NUMBER OF EQUATIONS:     72
 	NUMBER OF RHS:           1
 	NUMBER OF FLOPS:         2.893e+04

     CHECK POINT   START OF SOLVER    

     CHECK POINT  END OF SOLVER       

       ELAPSED USER TIME (SEC)      =   0.0000    
       ELAPSED SYSTEM TIME (SEC)    =   0.0000    
       ELAPSED TOTAL CPU TIME (SEC) =   0.0000    
       ELAPSED WALLCLOCK TIME (SEC) =          0

               CONVERGENCE CHECKS FOR EQUILIBRIUM ITERATION     1


 AVERAGE FORCE                       55.7       TIME AVG. FORCE        28.9    
 LARGEST RESIDUAL FORCE             2.164E-09   AT NODE         34   DOF  2
   INSTANCE: Part Instance                                                                   
 LARGEST INCREMENT OF DISP.         1.644E-04   AT NODE         36   DOF  2
   INSTANCE: Part Instance                                                                   
 LARGEST CORRECTION TO DISP.        2.703E-09   AT NODE         36   DOF  2
   INSTANCE: Part Instance                                                                   
          THE FORCE     EQUILIBRIUM RESPONSE WAS LINEAR IN THIS INCREMENT

 ITERATION SUMMARY FOR THE INCREMENT:   1 TOTAL ITERATIONS, OF WHICH
   0 ARE SEVERE DISCONTINUITY ITERATIONS AND  1 ARE EQUILIBRIUM ITERATIONS.

 TIME INCREMENT COMPLETED  8.900E-03,  FRACTION OF STEP COMPLETED  0.231    
 STEP TIME COMPLETED       0.231    ,  TOTAL TIME COMPLETED        0.231    


  INCREMENT    27 STARTS. ATTEMPT NUMBER  1, TIME INCREMENT  8.900E-03
 
	UNSYMMETRIC DIRECT SPARSE SOLVER RUNNING ON
 	1 HOST:        1 MPI RANK  x 7 THREADS, 1 GPU PER RANK
 	NUMBER OF EQUATIONS:     72
 	NUMBER OF RHS:           1
 	NUMBER OF FLOPS:         2.893e+04

     CHECK POINT   START OF SOLVER    

     CHECK POINT  END OF SOLVER       

       ELAPSED USER TIME (SEC)      =   0.0000    
       ELAPSED SYSTEM TIME (SEC)    =   0.0000    
       ELAPSED TOTAL CPU TIME (SEC) =   0.0000    
       ELAPSED WALLCLOCK TIME (SEC) =          0

               CONVERGENCE CHECKS FOR EQUILIBRIUM ITERATION     1


 AVERAGE FORCE                       57.8       TIME AVG. FORCE        30.0    
 LARGEST RESIDUAL FORCE             2.164E-09   AT NODE         35   DOF  2
   INSTANCE: Part Instance                                                                   
 LARGEST INCREMENT OF DISP.         1.644E-04   AT NODE         33   DOF  2
   INSTANCE: Part Instance                                                                   
 LARGEST CORRECTION TO DISP.        2.703E-09   AT NODE         33   DOF  2
   INSTANCE: Part Instance                                                                   
          THE FORCE     EQUILIBRIUM RESPONSE WAS LINEAR IN THIS INCREMENT

 ITERATION SUMMARY FOR THE INCREMENT:   1 TOTAL ITERATIONS, OF WHICH
   0 ARE SEVERE DISCONTINUITY ITERATIONS AND  1 ARE EQUILIBRIUM ITERATIONS.

 TIME INCREMENT COMPLETED  8.900E-03,  FRACTION OF STEP COMPLETED  0.240    
 STEP TIME COMPLETED       0.240    ,  TOTAL TIME COMPLETED        0.240    


  INCREMENT    28 STARTS. ATTEMPT NUMBER  1, TIME INCREMENT  8.900E-03
 
	UNSYMMETRIC DIRECT SPARSE SOLVER RUNNING ON
 	1 HOST:        1 MPI RANK  x 7 THREADS, 1 GPU PER RANK
 	NUMBER OF EQUATIONS:     72
 	NUMBER OF RHS:           1
 	NUMBER OF FLOPS:         2.893e+04

     CHECK POINT   START OF SOLVER    

     CHECK POINT  END OF SOLVER       

       ELAPSED USER TIME (SEC)      =  0.10000    
       ELAPSED SYSTEM TIME (SEC)    =   0.0000    
       ELAPSED TOTAL CPU TIME (SEC) =  0.10000    
       ELAPSED WALLCLOCK TIME (SEC) =          0

               CONVERGENCE CHECKS FOR EQUILIBRIUM ITERATION     1


 AVERAGE FORCE                       60.0       TIME AVG. FORCE        31.0    
 LARGEST RESIDUAL FORCE             2.164E-09   AT NODE         34   DOF  2
   INSTANCE: Part Instance                                                                   
 LARGEST INCREMENT OF DISP.         1.644E-04   AT NODE         35   DOF  2
   INSTANCE: Part Instance                                                                   
 LARGEST CORRECTION TO DISP.        2.703E-09   AT NODE         35   DOF  2
   INSTANCE: Part Instance                                                                   
          THE FORCE     EQUILIBRIUM RESPONSE WAS LINEAR IN THIS INCREMENT

 ITERATION SUMMARY FOR THE INCREMENT:   1 TOTAL ITERATIONS, OF WHICH
   0 ARE SEVERE DISCONTINUITY ITERATIONS AND  1 ARE EQUILIBRIUM ITERATIONS.

 TIME INCREMENT COMPLETED  8.900E-03,  FRACTION OF STEP COMPLETED  0.249    
 STEP TIME COMPLETED       0.249    ,  TOTAL TIME COMPLETED        0.249    


  INCREMENT    29 STARTS. ATTEMPT NUMBER  1, TIME INCREMENT  8.900E-03
 
	UNSYMMETRIC DIRECT SPARSE SOLVER RUNNING ON
 	1 HOST:        1 MPI RANK  x 7 THREADS, 1 GPU PER RANK
 	NUMBER OF EQUATIONS:     72
 	NUMBER OF RHS:           1
 	NUMBER OF FLOPS:         2.893e+04

     CHECK POINT   START OF SOLVER    

     CHECK POINT  END OF SOLVER       

       ELAPSED USER TIME (SEC)      =  0.10000    
       ELAPSED SYSTEM TIME (SEC)    =   0.0000    
       ELAPSED TOTAL CPU TIME (SEC) =  0.10000    
       ELAPSED WALLCLOCK TIME (SEC) =          0

               CONVERGENCE CHECKS FOR EQUILIBRIUM ITERATION     1


 AVERAGE FORCE                       62.1       TIME AVG. FORCE        32.1    
 LARGEST RESIDUAL FORCE             2.164E-09   AT NODE         35   DOF  2
   INSTANCE: Part Instance                                                                   
 LARGEST INCREMENT OF DISP.         1.644E-04   AT NODE         31   DOF  2
   INSTANCE: Part Instance                                                                   
 LARGEST CORRECTION TO DISP.        2.703E-09   AT NODE         31   DOF  2
   INSTANCE: Part Instance                                                                   
          THE FORCE     EQUILIBRIUM RESPONSE WAS LINEAR IN THIS INCREMENT

 ITERATION SUMMARY FOR THE INCREMENT:   1 TOTAL ITERATIONS, OF WHICH
   0 ARE SEVERE DISCONTINUITY ITERATIONS AND  1 ARE EQUILIBRIUM ITERATIONS.

 TIME INCREMENT COMPLETED  8.900E-03,  FRACTION OF STEP COMPLETED  0.258    
 STEP TIME COMPLETED       0.258    ,  TOTAL TIME COMPLETED        0.258    


  INCREMENT    30 STARTS. ATTEMPT NUMBER  1, TIME INCREMENT  8.900E-03
 
	UNSYMMETRIC DIRECT SPARSE SOLVER RUNNING ON
 	1 HOST:        1 MPI RANK  x 7 THREADS, 1 GPU PER RANK
 	NUMBER OF EQUATIONS:     72
 	NUMBER OF RHS:           1
 	NUMBER OF FLOPS:         2.893e+04

     CHECK POINT   START OF SOLVER    

     CHECK POINT  END OF SOLVER       

       ELAPSED USER TIME (SEC)      =   0.0000    
       ELAPSED SYSTEM TIME (SEC)    =   0.0000    
       ELAPSED TOTAL CPU TIME (SEC) =   0.0000    
       ELAPSED WALLCLOCK TIME (SEC) =          0

               CONVERGENCE CHECKS FOR EQUILIBRIUM ITERATION     1


 AVERAGE FORCE                       64.2       TIME AVG. FORCE        33.2    
 LARGEST RESIDUAL FORCE             2.164E-09   AT NODE         34   DOF  2
   INSTANCE: Part Instance                                                                   
 LARGEST INCREMENT OF DISP.         1.645E-04   AT NODE         36   DOF  2
   INSTANCE: Part Instance                                                                   
 LARGEST CORRECTION TO DISP.        2.703E-09   AT NODE         36   DOF  2
   INSTANCE: Part Instance                                                                   
          THE FORCE     EQUILIBRIUM RESPONSE WAS LINEAR IN THIS INCREMENT

 ITERATION SUMMARY FOR THE INCREMENT:   1 TOTAL ITERATIONS, OF WHICH
   0 ARE SEVERE DISCONTINUITY ITERATIONS AND  1 ARE EQUILIBRIUM ITERATIONS.

 TIME INCREMENT COMPLETED  8.900E-03,  FRACTION OF STEP COMPLETED  0.267    
 STEP TIME COMPLETED       0.267    ,  TOTAL TIME COMPLETED        0.267    


  INCREMENT    31 STARTS. ATTEMPT NUMBER  1, TIME INCREMENT  8.900E-03
 
	UNSYMMETRIC DIRECT SPARSE SOLVER RUNNING ON
 	1 HOST:        1 MPI RANK  x 7 THREADS, 1 GPU PER RANK
 	NUMBER OF EQUATIONS:     72
 	NUMBER OF RHS:           1
 	NUMBER OF FLOPS:         2.893e+04

     CHECK POINT   START OF SOLVER    

     CHECK POINT  END OF SOLVER       

       ELAPSED USER TIME (SEC)      =  0.10000    
       ELAPSED SYSTEM TIME (SEC)    =   0.0000    
       ELAPSED TOTAL CPU TIME (SEC) =  0.10000    
       ELAPSED WALLCLOCK TIME (SEC) =          0

               CONVERGENCE CHECKS FOR EQUILIBRIUM ITERATION     1


 AVERAGE FORCE                       66.4       TIME AVG. FORCE        34.2    
 LARGEST RESIDUAL FORCE             2.164E-09   AT NODE         33   DOF  2
   INSTANCE: Part Instance                                                                   
 LARGEST INCREMENT OF DISP.         1.645E-04   AT NODE         35   DOF  2
   INSTANCE: Part Instance                                                                   
 LARGEST CORRECTION TO DISP.        2.703E-09   AT NODE         34   DOF  2
   INSTANCE: Part Instance                                                                   
          THE FORCE     EQUILIBRIUM RESPONSE WAS LINEAR IN THIS INCREMENT

 ITERATION SUMMARY FOR THE INCREMENT:   1 TOTAL ITERATIONS, OF WHICH
   0 ARE SEVERE DISCONTINUITY ITERATIONS AND  1 ARE EQUILIBRIUM ITERATIONS.

 TIME INCREMENT COMPLETED  8.900E-03,  FRACTION OF STEP COMPLETED  0.276    
 STEP TIME COMPLETED       0.276    ,  TOTAL TIME COMPLETED        0.276    


  INCREMENT    32 STARTS. ATTEMPT NUMBER  1, TIME INCREMENT  8.900E-03
 
	UNSYMMETRIC DIRECT SPARSE SOLVER RUNNING ON
 	1 HOST:        1 MPI RANK  x 7 THREADS, 1 GPU PER RANK
 	NUMBER OF EQUATIONS:     72
 	NUMBER OF RHS:           1
 	NUMBER OF FLOPS:         2.893e+04

     CHECK POINT   START OF SOLVER    

     CHECK POINT  END OF SOLVER       

       ELAPSED USER TIME (SEC)      =   0.0000    
       ELAPSED SYSTEM TIME (SEC)    =   0.0000    
       ELAPSED TOTAL CPU TIME (SEC) =   0.0000    
       ELAPSED WALLCLOCK TIME (SEC) =          0

               CONVERGENCE CHECKS FOR EQUILIBRIUM ITERATION     1


 AVERAGE FORCE                       68.5       TIME AVG. FORCE        35.3    
 LARGEST RESIDUAL FORCE             2.164E-09   AT NODE         33   DOF  2
   INSTANCE: Part Instance                                                                   
 LARGEST INCREMENT OF DISP.         1.645E-04   AT NODE         36   DOF  2
   INSTANCE: Part Instance                                                                   
 LARGEST CORRECTION TO DISP.        2.703E-09   AT NODE         36   DOF  2
   INSTANCE: Part Instance                                                                   
          THE FORCE     EQUILIBRIUM RESPONSE WAS LINEAR IN THIS INCREMENT

 ITERATION SUMMARY FOR THE INCREMENT:   1 TOTAL ITERATIONS, OF WHICH
   0 ARE SEVERE DISCONTINUITY ITERATIONS AND  1 ARE EQUILIBRIUM ITERATIONS.

 TIME INCREMENT COMPLETED  8.900E-03,  FRACTION OF STEP COMPLETED  0.285    
 STEP TIME COMPLETED       0.285    ,  TOTAL TIME COMPLETED        0.285    


  INCREMENT    33 STARTS. ATTEMPT NUMBER  1, TIME INCREMENT  8.900E-03
 
	UNSYMMETRIC DIRECT SPARSE SOLVER RUNNING ON
 	1 HOST:        1 MPI RANK  x 7 THREADS, 1 GPU PER RANK
 	NUMBER OF EQUATIONS:     72
 	NUMBER OF RHS:           1
 	NUMBER OF FLOPS:         2.893e+04

     CHECK POINT   START OF SOLVER    

     CHECK POINT  END OF SOLVER       

       ELAPSED USER TIME (SEC)      =   0.0000    
       ELAPSED SYSTEM TIME (SEC)    =   0.0000    
       ELAPSED TOTAL CPU TIME (SEC) =   0.0000    
       ELAPSED WALLCLOCK TIME (SEC) =          0

               CONVERGENCE CHECKS FOR EQUILIBRIUM ITERATION     1


 AVERAGE FORCE                       70.7       TIME AVG. FORCE        36.4    
 LARGEST RESIDUAL FORCE             2.164E-09   AT NODE         35   DOF  2
   INSTANCE: Part Instance                                                                   
 LARGEST INCREMENT OF DISP.         1.645E-04   AT NODE         32   DOF  2
   INSTANCE: Part Instance                                                                   
 LARGEST CORRECTION TO DISP.        2.703E-09   AT NODE         32   DOF  2
   INSTANCE: Part Instance                                                                   
          THE FORCE     EQUILIBRIUM RESPONSE WAS LINEAR IN THIS INCREMENT

 ITERATION SUMMARY FOR THE INCREMENT:   1 TOTAL ITERATIONS, OF WHICH
   0 ARE SEVERE DISCONTINUITY ITERATIONS AND  1 ARE EQUILIBRIUM ITERATIONS.

 TIME INCREMENT COMPLETED  8.900E-03,  FRACTION OF STEP COMPLETED  0.294    
 STEP TIME COMPLETED       0.294    ,  TOTAL TIME COMPLETED        0.294    


  INCREMENT    34 STARTS. ATTEMPT NUMBER  1, TIME INCREMENT  8.900E-03
 
	UNSYMMETRIC DIRECT SPARSE SOLVER RUNNING ON
 	1 HOST:        1 MPI RANK  x 7 THREADS, 1 GPU PER RANK
 	NUMBER OF EQUATIONS:     72
 	NUMBER OF RHS:           1
 	NUMBER OF FLOPS:         2.893e+04

     CHECK POINT   START OF SOLVER    

     CHECK POINT  END OF SOLVER       

       ELAPSED USER TIME (SEC)      =  0.10000    
       ELAPSED SYSTEM TIME (SEC)    =   0.0000    
       ELAPSED TOTAL CPU TIME (SEC) =  0.10000    
       ELAPSED WALLCLOCK TIME (SEC) =          0

               CONVERGENCE CHECKS FOR EQUILIBRIUM ITERATION     1


 AVERAGE FORCE                       72.8       TIME AVG. FORCE        37.5    
 LARGEST RESIDUAL FORCE             2.163E-09   AT NODE         32   DOF  2
   INSTANCE: Part Instance                                                                   
 LARGEST INCREMENT OF DISP.         1.645E-04   AT NODE         35   DOF  2
   INSTANCE: Part Instance                                                                   
 LARGEST CORRECTION TO DISP.        2.703E-09   AT NODE         36   DOF  2
   INSTANCE: Part Instance                                                                   
          THE FORCE     EQUILIBRIUM RESPONSE WAS LINEAR IN THIS INCREMENT

 ITERATION SUMMARY FOR THE INCREMENT:   1 TOTAL ITERATIONS, OF WHICH
   0 ARE SEVERE DISCONTINUITY ITERATIONS AND  1 ARE EQUILIBRIUM ITERATIONS.

 TIME INCREMENT COMPLETED  8.900E-03,  FRACTION OF STEP COMPLETED  0.303    
 STEP TIME COMPLETED       0.303    ,  TOTAL TIME COMPLETED        0.303    


  INCREMENT    35 STARTS. ATTEMPT NUMBER  1, TIME INCREMENT  8.900E-03
 
	UNSYMMETRIC DIRECT SPARSE SOLVER RUNNING ON
 	1 HOST:        1 MPI RANK  x 7 THREADS, 1 GPU PER RANK
 	NUMBER OF EQUATIONS:     72
 	NUMBER OF RHS:           1
 	NUMBER OF FLOPS:         2.893e+04

     CHECK POINT   START OF SOLVER    

     CHECK POINT  END OF SOLVER       

       ELAPSED USER TIME (SEC)      =  0.10000    
       ELAPSED SYSTEM TIME (SEC)    =   0.0000    
       ELAPSED TOTAL CPU TIME (SEC) =  0.10000    
       ELAPSED WALLCLOCK TIME (SEC) =          0

               CONVERGENCE CHECKS FOR EQUILIBRIUM ITERATION     1


 AVERAGE FORCE                       75.0       TIME AVG. FORCE        38.5    
 LARGEST RESIDUAL FORCE             2.164E-09   AT NODE         33   DOF  2
   INSTANCE: Part Instance                                                                   
 LARGEST INCREMENT OF DISP.         1.645E-04   AT NODE         33   DOF  2
   INSTANCE: Part Instance                                                                   
 LARGEST CORRECTION TO DISP.        2.703E-09   AT NODE         31   DOF  2
   INSTANCE: Part Instance                                                                   
          THE FORCE     EQUILIBRIUM RESPONSE WAS LINEAR IN THIS INCREMENT

 ITERATION SUMMARY FOR THE INCREMENT:   1 TOTAL ITERATIONS, OF WHICH
   0 ARE SEVERE DISCONTINUITY ITERATIONS AND  1 ARE EQUILIBRIUM ITERATIONS.

 TIME INCREMENT COMPLETED  8.900E-03,  FRACTION OF STEP COMPLETED  0.312    
 STEP TIME COMPLETED       0.312    ,  TOTAL TIME COMPLETED        0.312    


  INCREMENT    36 STARTS. ATTEMPT NUMBER  1, TIME INCREMENT  8.900E-03
 
	UNSYMMETRIC DIRECT SPARSE SOLVER RUNNING ON
 	1 HOST:        1 MPI RANK  x 7 THREADS, 1 GPU PER RANK
 	NUMBER OF EQUATIONS:     72
 	NUMBER OF RHS:           1
 	NUMBER OF FLOPS:         2.893e+04

     CHECK POINT   START OF SOLVER    

     CHECK POINT  END OF SOLVER       

       ELAPSED USER TIME (SEC)      =   0.0000    
       ELAPSED SYSTEM TIME (SEC)    =   0.0000    
       ELAPSED TOTAL CPU TIME (SEC) =   0.0000    
       ELAPSED WALLCLOCK TIME (SEC) =          0

               CONVERGENCE CHECKS FOR EQUILIBRIUM ITERATION     1


 AVERAGE FORCE                       77.1       TIME AVG. FORCE        39.6    
 LARGEST RESIDUAL FORCE             2.164E-09   AT NODE         34   DOF  2
   INSTANCE: Part Instance                                                                   
 LARGEST INCREMENT OF DISP.         1.645E-04   AT NODE         36   DOF  2
   INSTANCE: Part Instance                                                                   
 LARGEST CORRECTION TO DISP.        2.703E-09   AT NODE         36   DOF  2
   INSTANCE: Part Instance                                                                   
          THE FORCE     EQUILIBRIUM RESPONSE WAS LINEAR IN THIS INCREMENT

 ITERATION SUMMARY FOR THE INCREMENT:   1 TOTAL ITERATIONS, OF WHICH
   0 ARE SEVERE DISCONTINUITY ITERATIONS AND  1 ARE EQUILIBRIUM ITERATIONS.

 TIME INCREMENT COMPLETED  8.900E-03,  FRACTION OF STEP COMPLETED  0.320    
 STEP TIME COMPLETED       0.320    ,  TOTAL TIME COMPLETED        0.320    


  INCREMENT    37 STARTS. ATTEMPT NUMBER  1, TIME INCREMENT  8.900E-03
 
	UNSYMMETRIC DIRECT SPARSE SOLVER RUNNING ON
 	1 HOST:        1 MPI RANK  x 7 THREADS, 1 GPU PER RANK
 	NUMBER OF EQUATIONS:     72
 	NUMBER OF RHS:           1
 	NUMBER OF FLOPS:         2.893e+04

     CHECK POINT   START OF SOLVER    

     CHECK POINT  END OF SOLVER       

       ELAPSED USER TIME (SEC)      =   0.0000    
       ELAPSED SYSTEM TIME (SEC)    =   0.0000    
       ELAPSED TOTAL CPU TIME (SEC) =   0.0000    
       ELAPSED WALLCLOCK TIME (SEC) =          1

               CONVERGENCE CHECKS FOR EQUILIBRIUM ITERATION     1


 AVERAGE FORCE                       79.2       TIME AVG. FORCE        40.7    
 LARGEST RESIDUAL FORCE             2.164E-09   AT NODE         35   DOF  2
   INSTANCE: Part Instance                                                                   
 LARGEST INCREMENT OF DISP.         1.645E-04   AT NODE         31   DOF  2
   INSTANCE: Part Instance                                                                   
 LARGEST CORRECTION TO DISP.        2.703E-09   AT NODE         31   DOF  2
   INSTANCE: Part Instance                                                                   
          THE FORCE     EQUILIBRIUM RESPONSE WAS LINEAR IN THIS INCREMENT

 ITERATION SUMMARY FOR THE INCREMENT:   1 TOTAL ITERATIONS, OF WHICH
   0 ARE SEVERE DISCONTINUITY ITERATIONS AND  1 ARE EQUILIBRIUM ITERATIONS.

 TIME INCREMENT COMPLETED  8.900E-03,  FRACTION OF STEP COMPLETED  0.329    
 STEP TIME COMPLETED       0.329    ,  TOTAL TIME COMPLETED        0.329    


  INCREMENT    38 STARTS. ATTEMPT NUMBER  1, TIME INCREMENT  8.900E-03
 
	UNSYMMETRIC DIRECT SPARSE SOLVER RUNNING ON
 	1 HOST:        1 MPI RANK  x 7 THREADS, 1 GPU PER RANK
 	NUMBER OF EQUATIONS:     72
 	NUMBER OF RHS:           1
 	NUMBER OF FLOPS:         2.893e+04

     CHECK POINT   START OF SOLVER    

     CHECK POINT  END OF SOLVER       

       ELAPSED USER TIME (SEC)      =  0.10000    
       ELAPSED SYSTEM TIME (SEC)    =   0.0000    
       ELAPSED TOTAL CPU TIME (SEC) =  0.10000    
       ELAPSED WALLCLOCK TIME (SEC) =          0

               CONVERGENCE CHECKS FOR EQUILIBRIUM ITERATION     1


 AVERAGE FORCE                       81.4       TIME AVG. FORCE        41.7    
 LARGEST RESIDUAL FORCE             2.164E-09   AT NODE         34   DOF  2
   INSTANCE: Part Instance                                                                   
 LARGEST INCREMENT OF DISP.         1.645E-04   AT NODE         33   DOF  2
   INSTANCE: Part Instance                                                                   
 LARGEST CORRECTION TO DISP.        2.703E-09   AT NODE         32   DOF  2
   INSTANCE: Part Instance                                                                   
          THE FORCE     EQUILIBRIUM RESPONSE WAS LINEAR IN THIS INCREMENT

 ITERATION SUMMARY FOR THE INCREMENT:   1 TOTAL ITERATIONS, OF WHICH
   0 ARE SEVERE DISCONTINUITY ITERATIONS AND  1 ARE EQUILIBRIUM ITERATIONS.

 TIME INCREMENT COMPLETED  8.900E-03,  FRACTION OF STEP COMPLETED  0.338    
 STEP TIME COMPLETED       0.338    ,  TOTAL TIME COMPLETED        0.338    


  INCREMENT    39 STARTS. ATTEMPT NUMBER  1, TIME INCREMENT  8.900E-03
 
	UNSYMMETRIC DIRECT SPARSE SOLVER RUNNING ON
 	1 HOST:        1 MPI RANK  x 7 THREADS, 1 GPU PER RANK
 	NUMBER OF EQUATIONS:     72
 	NUMBER OF RHS:           1
 	NUMBER OF FLOPS:         2.893e+04

     CHECK POINT   START OF SOLVER    

     CHECK POINT  END OF SOLVER       

       ELAPSED USER TIME (SEC)      =   0.0000    
       ELAPSED SYSTEM TIME (SEC)    =   0.0000    
       ELAPSED TOTAL CPU TIME (SEC) =   0.0000    
       ELAPSED WALLCLOCK TIME (SEC) =          0

               CONVERGENCE CHECKS FOR EQUILIBRIUM ITERATION     1


 AVERAGE FORCE                       83.5       TIME AVG. FORCE        42.8    
 LARGEST RESIDUAL FORCE             2.163E-09   AT NODE         33   DOF  2
   INSTANCE: Part Instance                                                                   
 LARGEST INCREMENT OF DISP.         1.645E-04   AT NODE         36   DOF  2
   INSTANCE: Part Instance                                                                   
 LARGEST CORRECTION TO DISP.        2.703E-09   AT NODE         36   DOF  2
   INSTANCE: Part Instance                                                                   
          THE FORCE     EQUILIBRIUM RESPONSE WAS LINEAR IN THIS INCREMENT

 ITERATION SUMMARY FOR THE INCREMENT:   1 TOTAL ITERATIONS, OF WHICH
   0 ARE SEVERE DISCONTINUITY ITERATIONS AND  1 ARE EQUILIBRIUM ITERATIONS.

 TIME INCREMENT COMPLETED  8.900E-03,  FRACTION OF STEP COMPLETED  0.347    
 STEP TIME COMPLETED       0.347    ,  TOTAL TIME COMPLETED        0.347    


  INCREMENT    40 STARTS. ATTEMPT NUMBER  1, TIME INCREMENT  8.900E-03
 
	UNSYMMETRIC DIRECT SPARSE SOLVER RUNNING ON
 	1 HOST:        1 MPI RANK  x 7 THREADS, 1 GPU PER RANK
 	NUMBER OF EQUATIONS:     72
 	NUMBER OF RHS:           1
 	NUMBER OF FLOPS:         2.893e+04

     CHECK POINT   START OF SOLVER    

     CHECK POINT  END OF SOLVER       

       ELAPSED USER TIME (SEC)      =  0.10000    
       ELAPSED SYSTEM TIME (SEC)    =   0.0000    
       ELAPSED TOTAL CPU TIME (SEC) =  0.10000    
       ELAPSED WALLCLOCK TIME (SEC) =          0

               CONVERGENCE CHECKS FOR EQUILIBRIUM ITERATION     1


 AVERAGE FORCE                       85.7       TIME AVG. FORCE        43.9    
 LARGEST RESIDUAL FORCE             2.164E-09   AT NODE         33   DOF  2
   INSTANCE: Part Instance                                                                   
 LARGEST INCREMENT OF DISP.         1.645E-04   AT NODE         31   DOF  2
   INSTANCE: Part Instance                                                                   
 LARGEST CORRECTION TO DISP.        2.703E-09   AT NODE         31   DOF  2
   INSTANCE: Part Instance                                                                   
          THE FORCE     EQUILIBRIUM RESPONSE WAS LINEAR IN THIS INCREMENT

 ITERATION SUMMARY FOR THE INCREMENT:   1 TOTAL ITERATIONS, OF WHICH
   0 ARE SEVERE DISCONTINUITY ITERATIONS AND  1 ARE EQUILIBRIUM ITERATIONS.

 TIME INCREMENT COMPLETED  8.900E-03,  FRACTION OF STEP COMPLETED  0.356    
 STEP TIME COMPLETED       0.356    ,  TOTAL TIME COMPLETED        0.356    


  INCREMENT    41 STARTS. ATTEMPT NUMBER  1, TIME INCREMENT  8.900E-03
 
	UNSYMMETRIC DIRECT SPARSE SOLVER RUNNING ON
 	1 HOST:        1 MPI RANK  x 7 THREADS, 1 GPU PER RANK
 	NUMBER OF EQUATIONS:     72
 	NUMBER OF RHS:           1
 	NUMBER OF FLOPS:         2.893e+04

     CHECK POINT   START OF SOLVER    

     CHECK POINT  END OF SOLVER       

       ELAPSED USER TIME (SEC)      =   0.0000    
       ELAPSED SYSTEM TIME (SEC)    =   0.0000    
       ELAPSED TOTAL CPU TIME (SEC) =   0.0000    
       ELAPSED WALLCLOCK TIME (SEC) =          0

               CONVERGENCE CHECKS FOR EQUILIBRIUM ITERATION     1


 AVERAGE FORCE                       87.8       TIME AVG. FORCE        45.0    
 LARGEST RESIDUAL FORCE             2.163E-09   AT NODE         33   DOF  2
   INSTANCE: Part Instance                                                                   
 LARGEST INCREMENT OF DISP.         1.645E-04   AT NODE         36   DOF  2
   INSTANCE: Part Instance                                                                   
 LARGEST CORRECTION TO DISP.        2.704E-09   AT NODE         36   DOF  2
   INSTANCE: Part Instance                                                                   
          THE FORCE     EQUILIBRIUM RESPONSE WAS LINEAR IN THIS INCREMENT

 ITERATION SUMMARY FOR THE INCREMENT:   1 TOTAL ITERATIONS, OF WHICH
   0 ARE SEVERE DISCONTINUITY ITERATIONS AND  1 ARE EQUILIBRIUM ITERATIONS.

 TIME INCREMENT COMPLETED  8.900E-03,  FRACTION OF STEP COMPLETED  0.365    
 STEP TIME COMPLETED       0.365    ,  TOTAL TIME COMPLETED        0.365    


  INCREMENT    42 STARTS. ATTEMPT NUMBER  1, TIME INCREMENT  8.900E-03
 
	UNSYMMETRIC DIRECT SPARSE SOLVER RUNNING ON
 	1 HOST:        1 MPI RANK  x 7 THREADS, 1 GPU PER RANK
 	NUMBER OF EQUATIONS:     72
 	NUMBER OF RHS:           1
 	NUMBER OF FLOPS:         2.893e+04

     CHECK POINT   START OF SOLVER    

     CHECK POINT  END OF SOLVER       

       ELAPSED USER TIME (SEC)      =   0.0000    
       ELAPSED SYSTEM TIME (SEC)    =   0.0000    
       ELAPSED TOTAL CPU TIME (SEC) =   0.0000    
       ELAPSED WALLCLOCK TIME (SEC) =          0

               CONVERGENCE CHECKS FOR EQUILIBRIUM ITERATION     1


 AVERAGE FORCE                       89.9       TIME AVG. FORCE        46.0    
 LARGEST RESIDUAL FORCE             2.164E-09   AT NODE         35   DOF  2
   INSTANCE: Part Instance                                                                   
 LARGEST INCREMENT OF DISP.         1.645E-04   AT NODE         32   DOF  2
   INSTANCE: Part Instance                                                                   
 LARGEST CORRECTION TO DISP.        2.704E-09   AT NODE         32   DOF  2
   INSTANCE: Part Instance                                                                   
          THE FORCE     EQUILIBRIUM RESPONSE WAS LINEAR IN THIS INCREMENT

 ITERATION SUMMARY FOR THE INCREMENT:   1 TOTAL ITERATIONS, OF WHICH
   0 ARE SEVERE DISCONTINUITY ITERATIONS AND  1 ARE EQUILIBRIUM ITERATIONS.

 TIME INCREMENT COMPLETED  8.900E-03,  FRACTION OF STEP COMPLETED  0.374    
 STEP TIME COMPLETED       0.374    ,  TOTAL TIME COMPLETED        0.374    


  INCREMENT    43 STARTS. ATTEMPT NUMBER  1, TIME INCREMENT  8.900E-03
 
	UNSYMMETRIC DIRECT SPARSE SOLVER RUNNING ON
 	1 HOST:        1 MPI RANK  x 7 THREADS, 1 GPU PER RANK
 	NUMBER OF EQUATIONS:     72
 	NUMBER OF RHS:           1
 	NUMBER OF FLOPS:         2.893e+04

     CHECK POINT   START OF SOLVER    

     CHECK POINT  END OF SOLVER       

       ELAPSED USER TIME (SEC)      =   0.0000    
       ELAPSED SYSTEM TIME (SEC)    =   0.0000    
       ELAPSED TOTAL CPU TIME (SEC) =   0.0000    
       ELAPSED WALLCLOCK TIME (SEC) =          0

               CONVERGENCE CHECKS FOR EQUILIBRIUM ITERATION     1


 AVERAGE FORCE                       92.1       TIME AVG. FORCE        47.1    
 LARGEST RESIDUAL FORCE             2.164E-09   AT NODE         35   DOF  2
   INSTANCE: Part Instance                                                                   
 LARGEST INCREMENT OF DISP.         1.645E-04   AT NODE         36   DOF  2
   INSTANCE: Part Instance                                                                   
 LARGEST CORRECTION TO DISP.        2.704E-09   AT NODE         36   DOF  2
   INSTANCE: Part Instance                                                                   
          THE FORCE     EQUILIBRIUM RESPONSE WAS LINEAR IN THIS INCREMENT

 ITERATION SUMMARY FOR THE INCREMENT:   1 TOTAL ITERATIONS, OF WHICH
   0 ARE SEVERE DISCONTINUITY ITERATIONS AND  1 ARE EQUILIBRIUM ITERATIONS.

 TIME INCREMENT COMPLETED  8.900E-03,  FRACTION OF STEP COMPLETED  0.383    
 STEP TIME COMPLETED       0.383    ,  TOTAL TIME COMPLETED        0.383    


  INCREMENT    44 STARTS. ATTEMPT NUMBER  1, TIME INCREMENT  8.900E-03
 
	UNSYMMETRIC DIRECT SPARSE SOLVER RUNNING ON
 	1 HOST:        1 MPI RANK  x 7 THREADS, 1 GPU PER RANK
 	NUMBER OF EQUATIONS:     72
 	NUMBER OF RHS:           1
 	NUMBER OF FLOPS:         2.893e+04

     CHECK POINT   START OF SOLVER    

     CHECK POINT  END OF SOLVER       

       ELAPSED USER TIME (SEC)      =   0.0000    
       ELAPSED SYSTEM TIME (SEC)    =   0.0000    
       ELAPSED TOTAL CPU TIME (SEC) =   0.0000    
       ELAPSED WALLCLOCK TIME (SEC) =          0

               CONVERGENCE CHECKS FOR EQUILIBRIUM ITERATION     1


 AVERAGE FORCE                       94.2       TIME AVG. FORCE        48.2    
 LARGEST RESIDUAL FORCE             2.163E-09   AT NODE         32   DOF  2
   INSTANCE: Part Instance                                                                   
 LARGEST INCREMENT OF DISP.         1.645E-04   AT NODE         36   DOF  2
   INSTANCE: Part Instance                                                                   
 LARGEST CORRECTION TO DISP.        2.704E-09   AT NODE         36   DOF  2
   INSTANCE: Part Instance                                                                   
          THE FORCE     EQUILIBRIUM RESPONSE WAS LINEAR IN THIS INCREMENT

 ITERATION SUMMARY FOR THE INCREMENT:   1 TOTAL ITERATIONS, OF WHICH
   0 ARE SEVERE DISCONTINUITY ITERATIONS AND  1 ARE EQUILIBRIUM ITERATIONS.

 TIME INCREMENT COMPLETED  8.900E-03,  FRACTION OF STEP COMPLETED  0.392    
 STEP TIME COMPLETED       0.392    ,  TOTAL TIME COMPLETED        0.392    


  INCREMENT    45 STARTS. ATTEMPT NUMBER  1, TIME INCREMENT  8.900E-03
 
	UNSYMMETRIC DIRECT SPARSE SOLVER RUNNING ON
 	1 HOST:        1 MPI RANK  x 7 THREADS, 1 GPU PER RANK
 	NUMBER OF EQUATIONS:     72
 	NUMBER OF RHS:           1
 	NUMBER OF FLOPS:         2.893e+04

     CHECK POINT   START OF SOLVER    

     CHECK POINT  END OF SOLVER       

       ELAPSED USER TIME (SEC)      =  0.10000    
       ELAPSED SYSTEM TIME (SEC)    =   0.0000    
       ELAPSED TOTAL CPU TIME (SEC) =  0.10000    
       ELAPSED WALLCLOCK TIME (SEC) =          1

               CONVERGENCE CHECKS FOR EQUILIBRIUM ITERATION     1


 AVERAGE FORCE                       96.4       TIME AVG. FORCE        49.2    
 LARGEST RESIDUAL FORCE             2.164E-09   AT NODE         32   DOF  2
   INSTANCE: Part Instance                                                                   
 LARGEST INCREMENT OF DISP.         1.645E-04   AT NODE         31   DOF  2
   INSTANCE: Part Instance                                                                   
 LARGEST CORRECTION TO DISP.        2.704E-09   AT NODE         31   DOF  2
   INSTANCE: Part Instance                                                                   
          THE FORCE     EQUILIBRIUM RESPONSE WAS LINEAR IN THIS INCREMENT

 ITERATION SUMMARY FOR THE INCREMENT:   1 TOTAL ITERATIONS, OF WHICH
   0 ARE SEVERE DISCONTINUITY ITERATIONS AND  1 ARE EQUILIBRIUM ITERATIONS.

 TIME INCREMENT COMPLETED  8.900E-03,  FRACTION OF STEP COMPLETED  0.401    
 STEP TIME COMPLETED       0.401    ,  TOTAL TIME COMPLETED        0.401    


  INCREMENT    46 STARTS. ATTEMPT NUMBER  1, TIME INCREMENT  8.900E-03
 
	UNSYMMETRIC DIRECT SPARSE SOLVER RUNNING ON
 	1 HOST:        1 MPI RANK  x 7 THREADS, 1 GPU PER RANK
 	NUMBER OF EQUATIONS:     72
 	NUMBER OF RHS:           1
 	NUMBER OF FLOPS:         2.893e+04

     CHECK POINT   START OF SOLVER    

     CHECK POINT  END OF SOLVER       

       ELAPSED USER TIME (SEC)      =  0.10000    
       ELAPSED SYSTEM TIME (SEC)    =   0.0000    
       ELAPSED TOTAL CPU TIME (SEC) =  0.10000    
       ELAPSED WALLCLOCK TIME (SEC) =          0

               CONVERGENCE CHECKS FOR EQUILIBRIUM ITERATION     1


 AVERAGE FORCE                       98.5       TIME AVG. FORCE        50.3    
 LARGEST RESIDUAL FORCE             2.164E-09   AT NODE         34   DOF  2
   INSTANCE: Part Instance                                                                   
 LARGEST INCREMENT OF DISP.         1.645E-04   AT NODE         33   DOF  2
   INSTANCE: Part Instance                                                                   
 LARGEST CORRECTION TO DISP.        2.704E-09   AT NODE         36   DOF  2
   INSTANCE: Part Instance                                                                   
          THE FORCE     EQUILIBRIUM RESPONSE WAS LINEAR IN THIS INCREMENT

 ITERATION SUMMARY FOR THE INCREMENT:   1 TOTAL ITERATIONS, OF WHICH
   0 ARE SEVERE DISCONTINUITY ITERATIONS AND  1 ARE EQUILIBRIUM ITERATIONS.

 TIME INCREMENT COMPLETED  8.900E-03,  FRACTION OF STEP COMPLETED  0.409    
 STEP TIME COMPLETED       0.409    ,  TOTAL TIME COMPLETED        0.409    


  INCREMENT    47 STARTS. ATTEMPT NUMBER  1, TIME INCREMENT  8.900E-03
 
	UNSYMMETRIC DIRECT SPARSE SOLVER RUNNING ON
 	1 HOST:        1 MPI RANK  x 7 THREADS, 1 GPU PER RANK
 	NUMBER OF EQUATIONS:     72
 	NUMBER OF RHS:           1
 	NUMBER OF FLOPS:         2.893e+04

     CHECK POINT   START OF SOLVER    

     CHECK POINT  END OF SOLVER       

       ELAPSED USER TIME (SEC)      =   0.0000    
       ELAPSED SYSTEM TIME (SEC)    =   0.0000    
       ELAPSED TOTAL CPU TIME (SEC) =   0.0000    
       ELAPSED WALLCLOCK TIME (SEC) =          0

               CONVERGENCE CHECKS FOR EQUILIBRIUM ITERATION     1


 AVERAGE FORCE                       101.       TIME AVG. FORCE        51.4    
 LARGEST RESIDUAL FORCE             2.163E-09   AT NODE         34   DOF  2
   INSTANCE: Part Instance                                                                   
[...]

     CHECK POINT   START OF SOLVER    

     CHECK POINT  END OF SOLVER       

       ELAPSED USER TIME (SEC)      =  0.10000    
       ELAPSED SYSTEM TIME (SEC)    =   0.0000    
       ELAPSED TOTAL CPU TIME (SEC) =  0.10000    
       ELAPSED WALLCLOCK TIME (SEC) =          0

               CONVERGENCE CHECKS FOR EQUILIBRIUM ITERATION     1


 AVERAGE FORCE                       212.       TIME AVG. FORCE        109.    
 LARGEST RESIDUAL FORCE             2.912E-03   AT NODE         34   DOF  2
   INSTANCE: Part Instance                                                                   
 LARGEST INCREMENT OF DISP.         1.377E-02   AT NODE         36   DOF  2
   INSTANCE: Part Instance                                                                   
 LARGEST CORRECTION TO DISP.        5.950E-04   AT NODE         36   DOF  2
   INSTANCE: Part Instance                                                                   
 ESTIMATE OF DISP.    CORRECTION    1.492E-06
 FORCE     EQUILIB. ACCEPTED BASED ON SMALL RESIDUAL AND ESTIMATED CORRECTION

 ITERATION SUMMARY FOR THE INCREMENT:   1 TOTAL ITERATIONS, OF WHICH
   0 ARE SEVERE DISCONTINUITY ITERATIONS AND  1 ARE EQUILIBRIUM ITERATIONS.

 TIME INCREMENT COMPLETED  8.900E-03,  FRACTION OF STEP COMPLETED  0.908    
 STEP TIME COMPLETED       0.908    ,  TOTAL TIME COMPLETED        0.908    


  INCREMENT   103 STARTS. ATTEMPT NUMBER  1, TIME INCREMENT  8.900E-03
 
	UNSYMMETRIC DIRECT SPARSE SOLVER RUNNING ON
 	1 HOST:        1 MPI RANK  x 7 THREADS, 1 GPU PER RANK
 	NUMBER OF EQUATIONS:     72
 	NUMBER OF RHS:           1
 	NUMBER OF FLOPS:         2.893e+04

     CHECK POINT   START OF SOLVER    

     CHECK POINT  END OF SOLVER       

       ELAPSED USER TIME (SEC)      =  0.10000    
       ELAPSED SYSTEM TIME (SEC)    =   0.0000    
       ELAPSED TOTAL CPU TIME (SEC) =  0.10000    
       ELAPSED WALLCLOCK TIME (SEC) =          0

               CONVERGENCE CHECKS FOR EQUILIBRIUM ITERATION     1


 AVERAGE FORCE                       214.       TIME AVG. FORCE        110.    
 LARGEST RESIDUAL FORCE             1.032E-02   AT NODE         32   DOF  2
   INSTANCE: Part Instance                                                                   
 LARGEST INCREMENT OF DISP.         1.525E-02   AT NODE         36   DOF  2
   INSTANCE: Part Instance                                                                   
 LARGEST CORRECTION TO DISP.        1.487E-03   AT NODE         36   DOF  2
   INSTANCE: Part Instance                                                                   
 ESTIMATE OF DISP.    CORRECTION    1.068E-05
 FORCE     EQUILIB. ACCEPTED BASED ON SMALL RESIDUAL AND ESTIMATED CORRECTION

 ITERATION SUMMARY FOR THE INCREMENT:   1 TOTAL ITERATIONS, OF WHICH
   0 ARE SEVERE DISCONTINUITY ITERATIONS AND  1 ARE EQUILIBRIUM ITERATIONS.

 TIME INCREMENT COMPLETED  8.900E-03,  FRACTION OF STEP COMPLETED  0.917    
 STEP TIME COMPLETED       0.917    ,  TOTAL TIME COMPLETED        0.917    


  INCREMENT   104 STARTS. ATTEMPT NUMBER  1, TIME INCREMENT  8.900E-03
 
	UNSYMMETRIC DIRECT SPARSE SOLVER RUNNING ON
 	1 HOST:        1 MPI RANK  x 7 THREADS, 1 GPU PER RANK
 	NUMBER OF EQUATIONS:     72
 	NUMBER OF RHS:           1
 	NUMBER OF FLOPS:         2.893e+04

     CHECK POINT   START OF SOLVER    

     CHECK POINT  END OF SOLVER       

       ELAPSED USER TIME (SEC)      =  0.20000    
       ELAPSED SYSTEM TIME (SEC)    =   0.0000    
       ELAPSED TOTAL CPU TIME (SEC) =  0.20000    
       ELAPSED WALLCLOCK TIME (SEC) =          0

               CONVERGENCE CHECKS FOR EQUILIBRIUM ITERATION     1


 AVERAGE FORCE                       216.       TIME AVG. FORCE        111.    
 LARGEST RESIDUAL FORCE             7.339E-05   AT NODE         32   DOF  2
   INSTANCE: Part Instance                                                                   
 LARGEST INCREMENT OF DISP.         1.528E-02   AT NODE         31   DOF  2
   INSTANCE: Part Instance                                                                   
 LARGEST CORRECTION TO DISP.        2.730E-05   AT NODE         31   DOF  2
   INSTANCE: Part Instance                                                                   
          THE FORCE     EQUILIBRIUM EQUATIONS HAVE CONVERGED

 ITERATION SUMMARY FOR THE INCREMENT:   1 TOTAL ITERATIONS, OF WHICH
   0 ARE SEVERE DISCONTINUITY ITERATIONS AND  1 ARE EQUILIBRIUM ITERATIONS.

 TIME INCREMENT COMPLETED  8.900E-03,  FRACTION OF STEP COMPLETED  0.926    
 STEP TIME COMPLETED       0.926    ,  TOTAL TIME COMPLETED        0.926    


  INCREMENT   105 STARTS. ATTEMPT NUMBER  1, TIME INCREMENT  8.900E-03
 
	UNSYMMETRIC DIRECT SPARSE SOLVER RUNNING ON
 	1 HOST:        1 MPI RANK  x 7 THREADS, 1 GPU PER RANK
 	NUMBER OF EQUATIONS:     72
 	NUMBER OF RHS:           1
 	NUMBER OF FLOPS:         2.893e+04

     CHECK POINT   START OF SOLVER    

     CHECK POINT  END OF SOLVER       

       ELAPSED USER TIME (SEC)      =  0.10000    
       ELAPSED SYSTEM TIME (SEC)    =   0.0000    
       ELAPSED TOTAL CPU TIME (SEC) =  0.10000    
       ELAPSED WALLCLOCK TIME (SEC) =          0

               CONVERGENCE CHECKS FOR EQUILIBRIUM ITERATION     1


 AVERAGE FORCE                       218.       TIME AVG. FORCE        112.    
 LARGEST RESIDUAL FORCE            -5.079E-05   AT NODE         24   DOF  1
   INSTANCE: Part Instance                                                                   
 LARGEST INCREMENT OF DISP.         1.530E-02   AT NODE         31   DOF  2
   INSTANCE: Part Instance                                                                   
 LARGEST CORRECTION TO DISP.        2.200E-05   AT NODE          6   DOF  1
   INSTANCE: Part Instance                                                                   
          THE FORCE     EQUILIBRIUM EQUATIONS HAVE CONVERGED

 ITERATION SUMMARY FOR THE INCREMENT:   1 TOTAL ITERATIONS, OF WHICH
   0 ARE SEVERE DISCONTINUITY ITERATIONS AND  1 ARE EQUILIBRIUM ITERATIONS.

 TIME INCREMENT COMPLETED  8.900E-03,  FRACTION OF STEP COMPLETED  0.935    
 STEP TIME COMPLETED       0.935    ,  TOTAL TIME COMPLETED        0.935    


  INCREMENT   106 STARTS. ATTEMPT NUMBER  1, TIME INCREMENT  8.900E-03
 
	UNSYMMETRIC DIRECT SPARSE SOLVER RUNNING ON
 	1 HOST:        1 MPI RANK  x 7 THREADS, 1 GPU PER RANK
 	NUMBER OF EQUATIONS:     72
 	NUMBER OF RHS:           1
 	NUMBER OF FLOPS:         2.893e+04

     CHECK POINT   START OF SOLVER    

     CHECK POINT  END OF SOLVER       

       ELAPSED USER TIME (SEC)      =  0.10000    
       ELAPSED SYSTEM TIME (SEC)    =   0.0000    
       ELAPSED TOTAL CPU TIME (SEC) =  0.10000    
       ELAPSED WALLCLOCK TIME (SEC) =          0

               CONVERGENCE CHECKS FOR EQUILIBRIUM ITERATION     1


 AVERAGE FORCE                       220.       TIME AVG. FORCE        113.    
 LARGEST RESIDUAL FORCE             5.228E-05   AT NODE         32   DOF  2
   INSTANCE: Part Instance                                                                   
 LARGEST INCREMENT OF DISP.         1.532E-02   AT NODE         31   DOF  2
   INSTANCE: Part Instance                                                                   
 LARGEST CORRECTION TO DISP.        2.236E-05   AT NODE         36   DOF  2
   INSTANCE: Part Instance                                                                   
          THE FORCE     EQUILIBRIUM EQUATIONS HAVE CONVERGED

 ITERATION SUMMARY FOR THE INCREMENT:   1 TOTAL ITERATIONS, OF WHICH
   0 ARE SEVERE DISCONTINUITY ITERATIONS AND  1 ARE EQUILIBRIUM ITERATIONS.

 TIME INCREMENT COMPLETED  8.900E-03,  FRACTION OF STEP COMPLETED  0.943    
 STEP TIME COMPLETED       0.943    ,  TOTAL TIME COMPLETED        0.943    


  INCREMENT   107 STARTS. ATTEMPT NUMBER  1, TIME INCREMENT  8.900E-03
 
	UNSYMMETRIC DIRECT SPARSE SOLVER RUNNING ON
 	1 HOST:        1 MPI RANK  x 7 THREADS, 1 GPU PER RANK
 	NUMBER OF EQUATIONS:     72
 	NUMBER OF RHS:           1
 	NUMBER OF FLOPS:         2.893e+04

     CHECK POINT   START OF SOLVER    

     CHECK POINT  END OF SOLVER       

       ELAPSED USER TIME (SEC)      =  0.10000    
       ELAPSED SYSTEM TIME (SEC)    =   0.0000    
       ELAPSED TOTAL CPU TIME (SEC) =  0.10000    
       ELAPSED WALLCLOCK TIME (SEC) =          0

               CONVERGENCE CHECKS FOR EQUILIBRIUM ITERATION     1


 AVERAGE FORCE                       221.       TIME AVG. FORCE        114.    
 LARGEST RESIDUAL FORCE             5.232E-05   AT NODE         32   DOF  2
   INSTANCE: Part Instance                                                                   
 LARGEST INCREMENT OF DISP.         1.534E-02   AT NODE         31   DOF  2
   INSTANCE: Part Instance                                                                   
 LARGEST CORRECTION TO DISP.        2.241E-05   AT NODE         31   DOF  2
   INSTANCE: Part Instance                                                                   
          THE FORCE     EQUILIBRIUM EQUATIONS HAVE CONVERGED

 ITERATION SUMMARY FOR THE INCREMENT:   1 TOTAL ITERATIONS, OF WHICH
   0 ARE SEVERE DISCONTINUITY ITERATIONS AND  1 ARE EQUILIBRIUM ITERATIONS.

 TIME INCREMENT COMPLETED  8.900E-03,  FRACTION OF STEP COMPLETED  0.952    
 STEP TIME COMPLETED       0.952    ,  TOTAL TIME COMPLETED        0.952    


  INCREMENT   108 STARTS. ATTEMPT NUMBER  1, TIME INCREMENT  8.900E-03
 
	UNSYMMETRIC DIRECT SPARSE SOLVER RUNNING ON
 	1 HOST:        1 MPI RANK  x 7 THREADS, 1 GPU PER RANK
 	NUMBER OF EQUATIONS:     72
 	NUMBER OF RHS:           1
 	NUMBER OF FLOPS:         2.893e+04

     CHECK POINT   START OF SOLVER    

     CHECK POINT  END OF SOLVER       

       ELAPSED USER TIME (SEC)      =   0.0000    
       ELAPSED SYSTEM TIME (SEC)    =   0.0000    
       ELAPSED TOTAL CPU TIME (SEC) =   0.0000    
       ELAPSED WALLCLOCK TIME (SEC) =          0

               CONVERGENCE CHECKS FOR EQUILIBRIUM ITERATION     1


 AVERAGE FORCE                       223.       TIME AVG. FORCE        115.    
 LARGEST RESIDUAL FORCE             5.222E-05   AT NODE         32   DOF  2
   INSTANCE: Part Instance                                                                   
 LARGEST INCREMENT OF DISP.         1.537E-02   AT NODE         31   DOF  2
   INSTANCE: Part Instance                                                                   
 LARGEST CORRECTION TO DISP.        2.243E-05   AT NODE         33   DOF  2
   INSTANCE: Part Instance                                                                   
          THE FORCE     EQUILIBRIUM EQUATIONS HAVE CONVERGED

 ITERATION SUMMARY FOR THE INCREMENT:   1 TOTAL ITERATIONS, OF WHICH
   0 ARE SEVERE DISCONTINUITY ITERATIONS AND  1 ARE EQUILIBRIUM ITERATIONS.

 TIME INCREMENT COMPLETED  8.900E-03,  FRACTION OF STEP COMPLETED  0.961    
 STEP TIME COMPLETED       0.961    ,  TOTAL TIME COMPLETED        0.961    


  INCREMENT   109 STARTS. ATTEMPT NUMBER  1, TIME INCREMENT  8.900E-03
 
	UNSYMMETRIC DIRECT SPARSE SOLVER RUNNING ON
 	1 HOST:        1 MPI RANK  x 7 THREADS, 1 GPU PER RANK
 	NUMBER OF EQUATIONS:     72
 	NUMBER OF RHS:           1
 	NUMBER OF FLOPS:         2.893e+04

     CHECK POINT   START OF SOLVER    

     CHECK POINT  END OF SOLVER       

       ELAPSED USER TIME (SEC)      =  0.10000    
       ELAPSED SYSTEM TIME (SEC)    =   0.0000    
       ELAPSED TOTAL CPU TIME (SEC) =  0.10000    
       ELAPSED WALLCLOCK TIME (SEC) =          0

               CONVERGENCE CHECKS FOR EQUILIBRIUM ITERATION     1


 AVERAGE FORCE                       225.       TIME AVG. FORCE        116.    
 LARGEST RESIDUAL FORCE             5.218E-05   AT NODE         35   DOF  2
   INSTANCE: Part Instance                                                                   
 LARGEST INCREMENT OF DISP.         1.539E-02   AT NODE         36   DOF  2
   INSTANCE: Part Instance                                                                   
 LARGEST CORRECTION TO DISP.        2.245E-05   AT NODE         36   DOF  2
   INSTANCE: Part Instance                                                                   
          THE FORCE     EQUILIBRIUM EQUATIONS HAVE CONVERGED

 ITERATION SUMMARY FOR THE INCREMENT:   1 TOTAL ITERATIONS, OF WHICH
   0 ARE SEVERE DISCONTINUITY ITERATIONS AND  1 ARE EQUILIBRIUM ITERATIONS.

 TIME INCREMENT COMPLETED  8.900E-03,  FRACTION OF STEP COMPLETED  0.970    
 STEP TIME COMPLETED       0.970    ,  TOTAL TIME COMPLETED        0.970    


  INCREMENT   110 STARTS. ATTEMPT NUMBER  1, TIME INCREMENT  8.900E-03
 
	UNSYMMETRIC DIRECT SPARSE SOLVER RUNNING ON
 	1 HOST:        1 MPI RANK  x 7 THREADS, 1 GPU PER RANK
 	NUMBER OF EQUATIONS:     72
 	NUMBER OF RHS:           1
 	NUMBER OF FLOPS:         2.893e+04

     CHECK POINT   START OF SOLVER    

     CHECK POINT  END OF SOLVER       

       ELAPSED USER TIME (SEC)      =   0.0000    
       ELAPSED SYSTEM TIME (SEC)    =   0.0000    
       ELAPSED TOTAL CPU TIME (SEC) =   0.0000    
       ELAPSED WALLCLOCK TIME (SEC) =          0

               CONVERGENCE CHECKS FOR EQUILIBRIUM ITERATION     1


 AVERAGE FORCE                       227.       TIME AVG. FORCE        117.    
 LARGEST RESIDUAL FORCE             5.214E-05   AT NODE         33   DOF  2
   INSTANCE: Part Instance                                                                   
 LARGEST INCREMENT OF DISP.         1.541E-02   AT NODE         36   DOF  2
   INSTANCE: Part Instance                                                                   
 LARGEST CORRECTION TO DISP.        2.249E-05   AT NODE         36   DOF  2
   INSTANCE: Part Instance                                                                   
          THE FORCE     EQUILIBRIUM EQUATIONS HAVE CONVERGED

 ITERATION SUMMARY FOR THE INCREMENT:   1 TOTAL ITERATIONS, OF WHICH
   0 ARE SEVERE DISCONTINUITY ITERATIONS AND  1 ARE EQUILIBRIUM ITERATIONS.

 TIME INCREMENT COMPLETED  8.900E-03,  FRACTION OF STEP COMPLETED  0.979    
 STEP TIME COMPLETED       0.979    ,  TOTAL TIME COMPLETED        0.979    


  INCREMENT   111 STARTS. ATTEMPT NUMBER  1, TIME INCREMENT  8.900E-03
 
	UNSYMMETRIC DIRECT SPARSE SOLVER RUNNING ON
 	1 HOST:        1 MPI RANK  x 7 THREADS, 1 GPU PER RANK
 	NUMBER OF EQUATIONS:     72
 	NUMBER OF RHS:           1
 	NUMBER OF FLOPS:         2.893e+04

     CHECK POINT   START OF SOLVER    

     CHECK POINT  END OF SOLVER       

       ELAPSED USER TIME (SEC)      =  0.10000    
       ELAPSED SYSTEM TIME (SEC)    =   0.0000    
       ELAPSED TOTAL CPU TIME (SEC) =  0.10000    
       ELAPSED WALLCLOCK TIME (SEC) =          0

               CONVERGENCE CHECKS FOR EQUILIBRIUM ITERATION     1


 AVERAGE FORCE                       229.       TIME AVG. FORCE        118.    
 LARGEST RESIDUAL FORCE             5.211E-05   AT NODE         34   DOF  2
   INSTANCE: Part Instance                                                                   
 LARGEST INCREMENT OF DISP.         1.543E-02   AT NODE         31   DOF  2
   INSTANCE: Part Instance                                                                   
 LARGEST CORRECTION TO DISP.        2.252E-05   AT NODE         31   DOF  2
   INSTANCE: Part Instance                                                                   
          THE FORCE     EQUILIBRIUM EQUATIONS HAVE CONVERGED

 ITERATION SUMMARY FOR THE INCREMENT:   1 TOTAL ITERATIONS, OF WHICH
   0 ARE SEVERE DISCONTINUITY ITERATIONS AND  1 ARE EQUILIBRIUM ITERATIONS.

 TIME INCREMENT COMPLETED  8.900E-03,  FRACTION OF STEP COMPLETED  0.988    
 STEP TIME COMPLETED       0.988    ,  TOTAL TIME COMPLETED        0.988    


  INCREMENT   112 STARTS. ATTEMPT NUMBER  1, TIME INCREMENT  8.900E-03
 
	UNSYMMETRIC DIRECT SPARSE SOLVER RUNNING ON
 	1 HOST:        1 MPI RANK  x 7 THREADS, 1 GPU PER RANK
 	NUMBER OF EQUATIONS:     72
 	NUMBER OF RHS:           1
 	NUMBER OF FLOPS:         2.893e+04

     CHECK POINT   START OF SOLVER    

     CHECK POINT  END OF SOLVER       

       ELAPSED USER TIME (SEC)      =  0.10000    
       ELAPSED SYSTEM TIME (SEC)    =   0.0000    
       ELAPSED TOTAL CPU TIME (SEC) =  0.10000    
       ELAPSED WALLCLOCK TIME (SEC) =          0

               CONVERGENCE CHECKS FOR EQUILIBRIUM ITERATION     1


 AVERAGE FORCE                       231.       TIME AVG. FORCE        119.    
 LARGEST RESIDUAL FORCE             5.207E-05   AT NODE         32   DOF  2
   INSTANCE: Part Instance                                                                   
 LARGEST INCREMENT OF DISP.         1.546E-02   AT NODE         36   DOF  2
   INSTANCE: Part Instance                                                                   
 LARGEST CORRECTION TO DISP.        2.255E-05   AT NODE         36   DOF  2
   INSTANCE: Part Instance                                                                   
          THE FORCE     EQUILIBRIUM EQUATIONS HAVE CONVERGED

 ITERATION SUMMARY FOR THE INCREMENT:   1 TOTAL ITERATIONS, OF WHICH
   0 ARE SEVERE DISCONTINUITY ITERATIONS AND  1 ARE EQUILIBRIUM ITERATIONS.

 TIME INCREMENT COMPLETED  8.900E-03,  FRACTION OF STEP COMPLETED  0.997    
 STEP TIME COMPLETED       0.997    ,  TOTAL TIME COMPLETED        0.997    


  INCREMENT   113 STARTS. ATTEMPT NUMBER  1, TIME INCREMENT  3.200E-03
 
	UNSYMMETRIC DIRECT SPARSE SOLVER RUNNING ON
 	1 HOST:        1 MPI RANK  x 7 THREADS, 1 GPU PER RANK
 	NUMBER OF EQUATIONS:     72
 	NUMBER OF RHS:           1
 	NUMBER OF FLOPS:         2.893e+04

     CHECK POINT   START OF SOLVER    

     CHECK POINT  END OF SOLVER       

       ELAPSED USER TIME (SEC)      =   0.0000    
       ELAPSED SYSTEM TIME (SEC)    =   0.0000    
       ELAPSED TOTAL CPU TIME (SEC) =   0.0000    
       ELAPSED WALLCLOCK TIME (SEC) =          0

               CONVERGENCE CHECKS FOR EQUILIBRIUM ITERATION     1


 AVERAGE FORCE                       231.       TIME AVG. FORCE        120.    
 LARGEST RESIDUAL FORCE             7.372E-06   AT NODE         33   DOF  2
   INSTANCE: Part Instance                                                                   
 LARGEST INCREMENT OF DISP.         5.563E-03   AT NODE         31   DOF  2
   INSTANCE: Part Instance                                                                   
 LARGEST CORRECTION TO DISP.        5.708E-06   AT NODE         31   DOF  2
   INSTANCE: Part Instance                                                                   
          THE FORCE     EQUILIBRIUM EQUATIONS HAVE CONVERGED

 ITERATION SUMMARY FOR THE INCREMENT:   1 TOTAL ITERATIONS, OF WHICH
   0 ARE SEVERE DISCONTINUITY ITERATIONS AND  1 ARE EQUILIBRIUM ITERATIONS.

 TIME INCREMENT COMPLETED  3.200E-03,  FRACTION OF STEP COMPLETED   1.00    
 STEP TIME COMPLETED        1.00    ,  TOTAL TIME COMPLETED         1.00    


          THE ANALYSIS HAS BEEN COMPLETED



     ANALYSIS SUMMARY:
     TOTAL OF        113  INCREMENTS
                       0  CUTBACKS IN AUTOMATIC INCREMENTATION
                     119  ITERATIONS INCLUDING CONTACT ITERATIONS IF PRESENT
                     119  PASSES THROUGH THE EQUATION SOLVER OF WHICH 
                     119  INVOLVE MATRIX DECOMPOSITION, INCLUDING
                       0  DECOMPOSITION(S) OF THE MASS MATRIX
                       1  REORDERING OF EQUATIONS TO MINIMIZE WAVEFRONT
                       0  ADDITIONAL RESIDUAL EVALUATIONS FOR LINE SEARCHES
                       0  ADDITIONAL OPERATOR EVALUATIONS FOR LINE SEARCHES
                       1  WARNING MESSAGES DURING USER INPUT PROCESSING
                       0  WARNING MESSAGES DURING ANALYSIS
                       0  ANALYSIS WARNINGS ARE NUMERICAL PROBLEM MESSAGES
                       0  ANALYSIS WARNINGS ARE NEGATIVE EIGENVALUE MESSAGES
                       0  ERROR MESSAGES



     JOB TIME SUMMARY
       USER TIME (SEC)      =   13.300    
       SYSTEM TIME (SEC)    =   6.3000    
       TOTAL CPU TIME (SEC) =   19.600    
       WALLCLOCK TIME (SEC) =         16
