1

   Abaqus 2022                                  Date 25-4ÔÂ-2023   Time 22:59:54
   For use by Supplied by Team-SolidSQUAD under license from Dassault Systemes or its subsidiary.

 Analysis of T_steelBrick_L10_W10_D1_Sa75_Sb450_dS12                             
 Load is applied in this step                                                    
 STEP    1     INCREMENT     1     STEP TIME    0.00    


                        S T E P       1     S T A T I C   A N A L Y S I S


          Load is applied in this step                                                    

     AUTOMATIC TIME CONTROL WITH -
          A SUGGESTED INITIAL TIME INCREMENT OF                2.670E-02
          AND A TOTAL TIME PERIOD OF                            1.00    
          THE MINIMUM TIME INCREMENT ALLOWED IS                1.000E-05
          THE MAXIMUM TIME INCREMENT ALLOWED IS                2.670E-02

     LINEAR EQUATION SOLVER TYPE         DIRECT SPARSE

 CONVERGENCE TOLERANCE PARAMETERS FOR FORCE    
     CRITERION FOR RESIDUAL FORCE     FOR A NONLINEAR PROBLEM          5.000E-03
     CRITERION FOR DISP.    CORRECTION IN A NONLINEAR PROBLEM          1.000E-02
     INITIAL VALUE OF TIME AVERAGE FORCE                               1.000E-02
     AVERAGE FORCE     IS TIME AVERAGE FORCE    
     ALTERNATE CRIT. FOR RESIDUAL FORCE     FOR A NONLINEAR PROBLEM    2.000E-02
     CRITERION FOR ZERO FORCE     RELATIVE TO TIME AVRG. FORCE         1.000E-05
     CRITERION FOR RESIDUAL FORCE     WHEN THERE IS ZERO FLUX          1.000E-05
     CRITERION FOR DISP.    CORRECTION WHEN THERE IS ZERO FLUX         1.000E-03
     CRITERION FOR RESIDUAL FORCE     FOR A LINEAR INCREMENT           1.000E-08
     FIELD CONVERSION RATIO                                             1.00    
     CRITERION FOR ZERO FORCE     REL. TO TIME AVRG. MAX. FORCE        1.000E-05
     CRITERION FOR ZERO DISP.    RELATIVE TO CHARACTERISTIC LENGTH     1.000E-08

     VOLUMETRIC STRAIN COMPATIBILITY TOLERANCE FOR HYBRID SOLIDS       1.000E-05
     AXIAL STRAIN COMPATIBILITY TOLERANCE FOR HYBRID BEAMS             1.000E-05
     TRANS. SHEAR STRAIN COMPATIBILITY TOLERANCE FOR HYBRID BEAMS      1.000E-05
     SOFT CONTACT CONSTRAINT COMPATIBILITY TOLERANCE FOR P>P0          5.000E-03
     SOFT CONTACT CONSTRAINT COMPATIBILITY TOLERANCE FOR P=0.0         0.100    
     CONTACT FORCE ERROR TOLERANCE FOR CONVERT SDI=YES                 1.00    
     DISPLACEMENT COMPATIBILITY TOLERANCE FOR DCOUP ELEMENTS           1.000E-05
     ROTATION COMPATIBILITY TOLERANCE FOR DCOUP ELEMENTS               1.000E-05

 EQUILIBRIUM WILL BE CHECKED FOR SEVERE DISCONTINUITY ITERATIONS

 TIME INCREMENTATION CONTROL PARAMETERS:
     FIRST EQUILIBRIUM ITERATION FOR CONSECUTIVE DIVERGENCE CHECK              4
     EQUILIBRIUM ITERATION AT WHICH LOG. CONVERGENCE RATE CHECK BEGINS         8
     EQUILIBRIUM ITERATION AFTER WHICH ALTERNATE RESIDUAL IS USED              9
     MAXIMUM EQUILIBRIUM ITERATIONS ALLOWED                                   16
     EQUILIBRIUM ITERATION COUNT FOR CUT-BACK IN NEXT INCREMENT               10
     MAXIMUM EQUILIB. ITERS IN TWO INCREMENTS FOR TIME INCREMENT INCREASE      4
     MAXIMUM ITERATIONS FOR SEVERE DISCONTINUITIES                            50
     MAXIMUM ATTEMPTS ALLOWED IN AN INCREMENT                                  5
     MAXIMUM DISCON. ITERS IN TWO INCREMENTS FOR TIME INCREMENT INCREASE      50
     MAXIMUM CONTACT AUGMENTATIONS FOR *SURFACE BEHAVIOR,AUGMENTED LAGRANGE   50
     CUT-BACK FACTOR AFTER DIVERGENCE                                 0.2500    
     CUT-BACK FACTOR FOR TOO SLOW CONVERGENCE                         0.5000    
     CUT-BACK FACTOR AFTER TOO MANY EQUILIBRIUM ITERATIONS            0.7500    
     CUT-BACK FACTOR AFTER TOO MANY SEVERE DISCONTINUITY ITERATIONS   0.2500    
     CUT-BACK FACTOR AFTER PROBLEMS IN ELEMENT ASSEMBLY               0.2500    
     INCREASE FACTOR AFTER TWO INCREMENTS THAT CONVERGE QUICKLY        1.500    
     MAX. TIME INCREMENT INCREASE FACTOR ALLOWED                       1.500    
     MAX. TIME INCREMENT INCREASE FACTOR ALLOWED (DYNAMICS)            1.250    
     MAX. TIME INCREMENT INCREASE FACTOR ALLOWED (DIFFUSION)           2.000    
     MINIMUM TIME INCREMENT RATIO FOR EXTRAPOLATION TO OCCUR          0.1000    
     MAX. RATIO OF TIME INCREMENT TO STABILITY LIMIT                   1.000    
     FRACTION OF STABILITY LIMIT FOR NEW TIME INCREMENT               0.9500    
     TIME INCREMENT INCREASE FACTOR BEFORE A TIME POINT                1.000    
     GLOBAL STABILIZATION CONTROL IS NOT USED

          PRINT OF INCREMENT NUMBER, TIME, ETC., EVERY    1  INCREMENTS

     THE MAXIMUM NUMBER OF INCREMENTS IN THIS STEP IS                    5000

          LARGE DISPLACEMENT THEORY WILL BE USED

          UNSYMMETRIC MATRIX STORAGE AND SOLUTION WILL BE USED

     LINEAR EXTRAPOLATION WILL BE USED

     CHARACTERISTIC ELEMENT LENGTH      2.00    

     DETAILS REGARDING ACTUAL SOLUTION WAVEFRONT REQUESTED

     DETAILED OUTPUT OF DIAGNOSTICS TO DATABASE REQUESTED

     PRINT OF INCREMENT NUMBER, TIME, ETC., TO THE MESSAGE FILE EVERY     1  INCREMENTS

     ELEMENT OPERATIONS WILL BE CARRIED OUT IN PARALLEL USING   7 THREADS ON 1 DOMAIN

     PARALLEL CONTACT TRACKING ENABLED


     COLLECTING MODEL CONSTRAINT INFORMATION FOR OVERCONSTRAINT CHECKS

     COLLECTING STEP CONSTRAINT INFORMATION FOR OVERCONSTRAINT CHECKS
 
     GPU SOLVER ACCELERATION ENABLED



  INCREMENT     1 STARTS. ATTEMPT NUMBER  1, TIME INCREMENT  2.670E-02
 
     INITIAL ELEMENT LOAD BALANCE
            DOMAIN    1     THREAD    NUMBER OF ELEMENTS
                              1            3
                              2            4
                              3            4
                              4            3
                              5            4
                              6            4
                              7            3
 
	UNSYMMETRIC DIRECT SPARSE SOLVER RUNNING ON
 	1 HOST:        1 MPI RANK  x 7 THREADS, 1 GPU PER RANK
 	NUMBER OF EQUATIONS:     72
 	NUMBER OF RHS:           1
 	NUMBER OF FLOPS:         2.893e+04

     CHECK POINT   START OF SOLVER    

     CHECK POINT  END OF SOLVER       

       ELAPSED USER TIME (SEC)      =  0.10000    
       ELAPSED SYSTEM TIME (SEC)    =  0.10000    
       ELAPSED TOTAL CPU TIME (SEC) =  0.20000    
       ELAPSED WALLCLOCK TIME (SEC) =          1

               CONVERGENCE CHECKS FOR EQUILIBRIUM ITERATION     1


 AVERAGE FORCE                       4.28       TIME AVG. FORCE        4.28    
 LARGEST RESIDUAL FORCE             9.486E-04   AT NODE         33   DOF  2
   INSTANCE: Part Instance                                                                   
 LARGEST INCREMENT OF DISP.         4.931E-04   AT NODE         32   DOF  2
   INSTANCE: Part Instance                                                                   
 LARGEST CORRECTION TO DISP.        4.931E-04   AT NODE         32   DOF  2
   INSTANCE: Part Instance                                                                   
 ESTIMATE OF DISP.    CORRECTION    1.947E-08
 FORCE     EQUILIB. ACCEPTED BASED ON SMALL RESIDUAL AND ESTIMATED CORRECTION

 ITERATION SUMMARY FOR THE INCREMENT:   1 TOTAL ITERATIONS, OF WHICH
   0 ARE SEVERE DISCONTINUITY ITERATIONS AND  1 ARE EQUILIBRIUM ITERATIONS.

 TIME INCREMENT COMPLETED  2.670E-02,  FRACTION OF STEP COMPLETED  2.670E-02
 STEP TIME COMPLETED       2.670E-02,  TOTAL TIME COMPLETED        2.670E-02


  INCREMENT     2 STARTS. ATTEMPT NUMBER  1, TIME INCREMENT  2.670E-02
 
	UNSYMMETRIC DIRECT SPARSE SOLVER RUNNING ON
 	1 HOST:        1 MPI RANK  x 7 THREADS, 1 GPU PER RANK
 	NUMBER OF EQUATIONS:     72
 	NUMBER OF RHS:           1
 	NUMBER OF FLOPS:         2.893e+04

     CHECK POINT   START OF SOLVER    

     CHECK POINT  END OF SOLVER       

       ELAPSED USER TIME (SEC)      =  0.10000    
       ELAPSED SYSTEM TIME (SEC)    =   0.0000    
       ELAPSED TOTAL CPU TIME (SEC) =  0.10000    
       ELAPSED WALLCLOCK TIME (SEC) =          0

               CONVERGENCE CHECKS FOR EQUILIBRIUM ITERATION     1


 AVERAGE FORCE                       12.8       TIME AVG. FORCE        8.57    
 LARGEST RESIDUAL FORCE             1.546E-07   AT NODE         32   DOF  2
   INSTANCE: Part Instance                                                                   
 LARGEST INCREMENT OF DISP.         4.932E-04   AT NODE         35   DOF  2
   INSTANCE: Part Instance                                                                   
 LARGEST CORRECTION TO DISP.        6.436E-08   AT NODE         36   DOF  2
   INSTANCE: Part Instance                                                                   
          THE FORCE     EQUILIBRIUM EQUATIONS HAVE CONVERGED

 ITERATION SUMMARY FOR THE INCREMENT:   1 TOTAL ITERATIONS, OF WHICH
   0 ARE SEVERE DISCONTINUITY ITERATIONS AND  1 ARE EQUILIBRIUM ITERATIONS.

 TIME INCREMENT COMPLETED  2.670E-02,  FRACTION OF STEP COMPLETED  5.340E-02
 STEP TIME COMPLETED       5.340E-02,  TOTAL TIME COMPLETED        5.340E-02


  INCREMENT     3 STARTS. ATTEMPT NUMBER  1, TIME INCREMENT  2.670E-02
 
	UNSYMMETRIC DIRECT SPARSE SOLVER RUNNING ON
 	1 HOST:        1 MPI RANK  x 7 THREADS, 1 GPU PER RANK
 	NUMBER OF EQUATIONS:     72
 	NUMBER OF RHS:           1
 	NUMBER OF FLOPS:         2.893e+04

     CHECK POINT   START OF SOLVER    

     CHECK POINT  END OF SOLVER       

       ELAPSED USER TIME (SEC)      =  0.10000    
       ELAPSED SYSTEM TIME (SEC)    =   0.0000    
       ELAPSED TOTAL CPU TIME (SEC) =  0.10000    
       ELAPSED WALLCLOCK TIME (SEC) =          0

               CONVERGENCE CHECKS FOR EQUILIBRIUM ITERATION     1


 AVERAGE FORCE                       19.3       TIME AVG. FORCE        12.1    
 LARGEST RESIDUAL FORCE             1.034E-08   AT NODE         33   DOF  2
   INSTANCE: Part Instance                                                                   
 LARGEST INCREMENT OF DISP.         4.932E-04   AT NODE         35   DOF  2
   INSTANCE: Part Instance                                                                   
 LARGEST CORRECTION TO DISP.        7.420E-09   AT NODE         36   DOF  1
   INSTANCE: Part Instance                                                                   
          THE FORCE     EQUILIBRIUM RESPONSE WAS LINEAR IN THIS INCREMENT

 ITERATION SUMMARY FOR THE INCREMENT:   1 TOTAL ITERATIONS, OF WHICH
   0 ARE SEVERE DISCONTINUITY ITERATIONS AND  1 ARE EQUILIBRIUM ITERATIONS.

 TIME INCREMENT COMPLETED  2.670E-02,  FRACTION OF STEP COMPLETED  8.010E-02
 STEP TIME COMPLETED       8.010E-02,  TOTAL TIME COMPLETED        8.010E-02


  INCREMENT     4 STARTS. ATTEMPT NUMBER  1, TIME INCREMENT  2.670E-02
 
	UNSYMMETRIC DIRECT SPARSE SOLVER RUNNING ON
 	1 HOST:        1 MPI RANK  x 7 THREADS, 1 GPU PER RANK
 	NUMBER OF EQUATIONS:     72
 	NUMBER OF RHS:           1
 	NUMBER OF FLOPS:         2.893e+04

     CHECK POINT   START OF SOLVER    

     CHECK POINT  END OF SOLVER       

       ELAPSED USER TIME (SEC)      =   0.0000    
       ELAPSED SYSTEM TIME (SEC)    =   0.0000    
       ELAPSED TOTAL CPU TIME (SEC) =   0.0000    
       ELAPSED WALLCLOCK TIME (SEC) =          0

               CONVERGENCE CHECKS FOR EQUILIBRIUM ITERATION     1


 AVERAGE FORCE                       25.7       TIME AVG. FORCE        15.5    
 LARGEST RESIDUAL FORCE             5.841E-08   AT NODE         34   DOF  2
   INSTANCE: Part Instance                                                                   
 LARGEST INCREMENT OF DISP.         4.932E-04   AT NODE         36   DOF  2
   INSTANCE: Part Instance                                                                   
 LARGEST CORRECTION TO DISP.        2.432E-08   AT NODE         36   DOF  2
   INSTANCE: Part Instance                                                                   
          THE FORCE     EQUILIBRIUM RESPONSE WAS LINEAR IN THIS INCREMENT

 ITERATION SUMMARY FOR THE INCREMENT:   1 TOTAL ITERATIONS, OF WHICH
   0 ARE SEVERE DISCONTINUITY ITERATIONS AND  1 ARE EQUILIBRIUM ITERATIONS.

 TIME INCREMENT COMPLETED  2.670E-02,  FRACTION OF STEP COMPLETED  0.107    
 STEP TIME COMPLETED       0.107    ,  TOTAL TIME COMPLETED        0.107    


  INCREMENT     5 STARTS. ATTEMPT NUMBER  1, TIME INCREMENT  2.670E-02
 
	UNSYMMETRIC DIRECT SPARSE SOLVER RUNNING ON
 	1 HOST:        1 MPI RANK  x 7 THREADS, 1 GPU PER RANK
 	NUMBER OF EQUATIONS:     72
 	NUMBER OF RHS:           1
 	NUMBER OF FLOPS:         2.893e+04

     CHECK POINT   START OF SOLVER    

     CHECK POINT  END OF SOLVER       

       ELAPSED USER TIME (SEC)      =   0.0000    
       ELAPSED SYSTEM TIME (SEC)    =   0.0000    
       ELAPSED TOTAL CPU TIME (SEC) =   0.0000    
       ELAPSED WALLCLOCK TIME (SEC) =          0

               CONVERGENCE CHECKS FOR EQUILIBRIUM ITERATION     1


 AVERAGE FORCE                       32.1       TIME AVG. FORCE        18.8    
 LARGEST RESIDUAL FORCE             5.843E-08   AT NODE         34   DOF  2
   INSTANCE: Part Instance                                                                   
 LARGEST INCREMENT OF DISP.         4.932E-04   AT NODE         32   DOF  2
   INSTANCE: Part Instance                                                                   
 LARGEST CORRECTION TO DISP.        2.432E-08   AT NODE         32   DOF  2
   INSTANCE: Part Instance                                                                   
          THE FORCE     EQUILIBRIUM RESPONSE WAS LINEAR IN THIS INCREMENT

 ITERATION SUMMARY FOR THE INCREMENT:   1 TOTAL ITERATIONS, OF WHICH
   0 ARE SEVERE DISCONTINUITY ITERATIONS AND  1 ARE EQUILIBRIUM ITERATIONS.

 TIME INCREMENT COMPLETED  2.670E-02,  FRACTION OF STEP COMPLETED  0.134    
 STEP TIME COMPLETED       0.134    ,  TOTAL TIME COMPLETED        0.134    


  INCREMENT     6 STARTS. ATTEMPT NUMBER  1, TIME INCREMENT  2.670E-02
 
	UNSYMMETRIC DIRECT SPARSE SOLVER RUNNING ON
 	1 HOST:        1 MPI RANK  x 7 THREADS, 1 GPU PER RANK
 	NUMBER OF EQUATIONS:     72
 	NUMBER OF RHS:           1
 	NUMBER OF FLOPS:         2.893e+04

     CHECK POINT   START OF SOLVER    

     CHECK POINT  END OF SOLVER       

       ELAPSED USER TIME (SEC)      =   0.0000    
       ELAPSED SYSTEM TIME (SEC)    =   0.0000    
       ELAPSED TOTAL CPU TIME (SEC) =   0.0000    
       ELAPSED WALLCLOCK TIME (SEC) =          0

               CONVERGENCE CHECKS FOR EQUILIBRIUM ITERATION     1


 AVERAGE FORCE                       38.5       TIME AVG. FORCE        22.1    
 LARGEST RESIDUAL FORCE             5.842E-08   AT NODE         33   DOF  2
   INSTANCE: Part Instance                                                                   
 LARGEST INCREMENT OF DISP.         4.932E-04   AT NODE         35   DOF  2
   INSTANCE: Part Instance                                                                   
 LARGEST CORRECTION TO DISP.        2.432E-08   AT NODE         36   DOF  2
   INSTANCE: Part Instance                                                                   
          THE FORCE     EQUILIBRIUM RESPONSE WAS LINEAR IN THIS INCREMENT

 ITERATION SUMMARY FOR THE INCREMENT:   1 TOTAL ITERATIONS, OF WHICH
   0 ARE SEVERE DISCONTINUITY ITERATIONS AND  1 ARE EQUILIBRIUM ITERATIONS.

 TIME INCREMENT COMPLETED  2.670E-02,  FRACTION OF STEP COMPLETED  0.160    
 STEP TIME COMPLETED       0.160    ,  TOTAL TIME COMPLETED        0.160    


  INCREMENT     7 STARTS. ATTEMPT NUMBER  1, TIME INCREMENT  2.670E-02
 
	UNSYMMETRIC DIRECT SPARSE SOLVER RUNNING ON
 	1 HOST:        1 MPI RANK  x 7 THREADS, 1 GPU PER RANK
 	NUMBER OF EQUATIONS:     72
 	NUMBER OF RHS:           1
 	NUMBER OF FLOPS:         2.893e+04

     CHECK POINT   START OF SOLVER    

     CHECK POINT  END OF SOLVER       

       ELAPSED USER TIME (SEC)      =   0.0000    
       ELAPSED SYSTEM TIME (SEC)    =   0.0000    
       ELAPSED TOTAL CPU TIME (SEC) =   0.0000    
       ELAPSED WALLCLOCK TIME (SEC) =          0

               CONVERGENCE CHECKS FOR EQUILIBRIUM ITERATION     1


 AVERAGE FORCE                       45.0       TIME AVG. FORCE        25.4    
 LARGEST RESIDUAL FORCE             5.842E-08   AT NODE         33   DOF  2
   INSTANCE: Part Instance                                                                   
 LARGEST INCREMENT OF DISP.         4.933E-04   AT NODE         31   DOF  2
   INSTANCE: Part Instance                                                                   
 LARGEST CORRECTION TO DISP.        2.432E-08   AT NODE         31   DOF  2
   INSTANCE: Part Instance                                                                   
          THE FORCE     EQUILIBRIUM RESPONSE WAS LINEAR IN THIS INCREMENT

 ITERATION SUMMARY FOR THE INCREMENT:   1 TOTAL ITERATIONS, OF WHICH
   0 ARE SEVERE DISCONTINUITY ITERATIONS AND  1 ARE EQUILIBRIUM ITERATIONS.

 TIME INCREMENT COMPLETED  2.670E-02,  FRACTION OF STEP COMPLETED  0.187    
 STEP TIME COMPLETED       0.187    ,  TOTAL TIME COMPLETED        0.187    


  INCREMENT     8 STARTS. ATTEMPT NUMBER  1, TIME INCREMENT  2.670E-02
 
	UNSYMMETRIC DIRECT SPARSE SOLVER RUNNING ON
 	1 HOST:        1 MPI RANK  x 7 THREADS, 1 GPU PER RANK
 	NUMBER OF EQUATIONS:     72
 	NUMBER OF RHS:           1
 	NUMBER OF FLOPS:         2.893e+04

     CHECK POINT   START OF SOLVER    

     CHECK POINT  END OF SOLVER       

       ELAPSED USER TIME (SEC)      =  0.10000    
       ELAPSED SYSTEM TIME (SEC)    =   0.0000    
       ELAPSED TOTAL CPU TIME (SEC) =  0.10000    
       ELAPSED WALLCLOCK TIME (SEC) =          0

               CONVERGENCE CHECKS FOR EQUILIBRIUM ITERATION     1


 AVERAGE FORCE                       51.4       TIME AVG. FORCE        28.6    
 LARGEST RESIDUAL FORCE             5.842E-08   AT NODE         35   DOF  2
   INSTANCE: Part Instance                                                                   
 LARGEST INCREMENT OF DISP.         4.933E-04   AT NODE         36   DOF  2
   INSTANCE: Part Instance                                                                   
 LARGEST CORRECTION TO DISP.        2.432E-08   AT NODE         36   DOF  2
   INSTANCE: Part Instance                                                                   
          THE FORCE     EQUILIBRIUM RESPONSE WAS LINEAR IN THIS INCREMENT

 ITERATION SUMMARY FOR THE INCREMENT:   1 TOTAL ITERATIONS, OF WHICH
   0 ARE SEVERE DISCONTINUITY ITERATIONS AND  1 ARE EQUILIBRIUM ITERATIONS.

 TIME INCREMENT COMPLETED  2.670E-02,  FRACTION OF STEP COMPLETED  0.214    
 STEP TIME COMPLETED       0.214    ,  TOTAL TIME COMPLETED        0.214    


  INCREMENT     9 STARTS. ATTEMPT NUMBER  1, TIME INCREMENT  2.670E-02
 
	UNSYMMETRIC DIRECT SPARSE SOLVER RUNNING ON
 	1 HOST:        1 MPI RANK  x 7 THREADS, 1 GPU PER RANK
 	NUMBER OF EQUATIONS:     72
 	NUMBER OF RHS:           1
 	NUMBER OF FLOPS:         2.893e+04

     CHECK POINT   START OF SOLVER    

     CHECK POINT  END OF SOLVER       

       ELAPSED USER TIME (SEC)      =  0.10000    
       ELAPSED SYSTEM TIME (SEC)    =   0.0000    
       ELAPSED TOTAL CPU TIME (SEC) =  0.10000    
       ELAPSED WALLCLOCK TIME (SEC) =          0

               CONVERGENCE CHECKS FOR EQUILIBRIUM ITERATION     1


 AVERAGE FORCE                       57.8       TIME AVG. FORCE        31.9    
 LARGEST RESIDUAL FORCE             5.842E-08   AT NODE         32   DOF  2
   INSTANCE: Part Instance                                                                   
 LARGEST INCREMENT OF DISP.         4.933E-04   AT NODE         33   DOF  2
   INSTANCE: Part Instance                                                                   
 LARGEST CORRECTION TO DISP.        2.433E-08   AT NODE         35   DOF  2
   INSTANCE: Part Instance                                                                   
          THE FORCE     EQUILIBRIUM RESPONSE WAS LINEAR IN THIS INCREMENT

 ITERATION SUMMARY FOR THE INCREMENT:   1 TOTAL ITERATIONS, OF WHICH
   0 ARE SEVERE DISCONTINUITY ITERATIONS AND  1 ARE EQUILIBRIUM ITERATIONS.

 TIME INCREMENT COMPLETED  2.670E-02,  FRACTION OF STEP COMPLETED  0.240    
 STEP TIME COMPLETED       0.240    ,  TOTAL TIME COMPLETED        0.240    


  INCREMENT    10 STARTS. ATTEMPT NUMBER  1, TIME INCREMENT  2.670E-02
 
	UNSYMMETRIC DIRECT SPARSE SOLVER RUNNING ON
 	1 HOST:        1 MPI RANK  x 7 THREADS, 1 GPU PER RANK
 	NUMBER OF EQUATIONS:     72
 	NUMBER OF RHS:           1
 	NUMBER OF FLOPS:         2.893e+04

     CHECK POINT   START OF SOLVER    

     CHECK POINT  END OF SOLVER       

       ELAPSED USER TIME (SEC)      =  0.10000    
       ELAPSED SYSTEM TIME (SEC)    =   0.0000    
       ELAPSED TOTAL CPU TIME (SEC) =  0.10000    
       ELAPSED WALLCLOCK TIME (SEC) =          0

               CONVERGENCE CHECKS FOR EQUILIBRIUM ITERATION     1


 AVERAGE FORCE                       64.2       TIME AVG. FORCE        35.1    
 LARGEST RESIDUAL FORCE             5.842E-08   AT NODE         35   DOF  2
   INSTANCE: Part Instance                                                                   
 LARGEST INCREMENT OF DISP.         4.933E-04   AT NODE         36   DOF  2
   INSTANCE: Part Instance                                                                   
 LARGEST CORRECTION TO DISP.        2.433E-08   AT NODE         36   DOF  2
   INSTANCE: Part Instance                                                                   
          THE FORCE     EQUILIBRIUM RESPONSE WAS LINEAR IN THIS INCREMENT

 ITERATION SUMMARY FOR THE INCREMENT:   1 TOTAL ITERATIONS, OF WHICH
   0 ARE SEVERE DISCONTINUITY ITERATIONS AND  1 ARE EQUILIBRIUM ITERATIONS.

 TIME INCREMENT COMPLETED  2.670E-02,  FRACTION OF STEP COMPLETED  0.267    
 STEP TIME COMPLETED       0.267    ,  TOTAL TIME COMPLETED        0.267    


  INCREMENT    11 STARTS. ATTEMPT NUMBER  1, TIME INCREMENT  2.670E-02
 
	UNSYMMETRIC DIRECT SPARSE SOLVER RUNNING ON
 	1 HOST:        1 MPI RANK  x 7 THREADS, 1 GPU PER RANK
 	NUMBER OF EQUATIONS:     72
 	NUMBER OF RHS:           1
 	NUMBER OF FLOPS:         2.893e+04

     CHECK POINT   START OF SOLVER    

     CHECK POINT  END OF SOLVER       

       ELAPSED USER TIME (SEC)      =  0.10000    
       ELAPSED SYSTEM TIME (SEC)    =   0.0000    
       ELAPSED TOTAL CPU TIME (SEC) =  0.10000    
       ELAPSED WALLCLOCK TIME (SEC) =          0

               CONVERGENCE CHECKS FOR EQUILIBRIUM ITERATION     1


 AVERAGE FORCE                       70.7       TIME AVG. FORCE        38.4    
 LARGEST RESIDUAL FORCE             5.842E-08   AT NODE         35   DOF  2
   INSTANCE: Part Instance                                                                   
 LARGEST INCREMENT OF DISP.         4.934E-04   AT NODE         34   DOF  2
   INSTANCE: Part Instance                                                                   
 LARGEST CORRECTION TO DISP.        2.433E-08   AT NODE         31   DOF  2
   INSTANCE: Part Instance                                                                   
          THE FORCE     EQUILIBRIUM RESPONSE WAS LINEAR IN THIS INCREMENT

 ITERATION SUMMARY FOR THE INCREMENT:   1 TOTAL ITERATIONS, OF WHICH
   0 ARE SEVERE DISCONTINUITY ITERATIONS AND  1 ARE EQUILIBRIUM ITERATIONS.

 TIME INCREMENT COMPLETED  2.670E-02,  FRACTION OF STEP COMPLETED  0.294    
 STEP TIME COMPLETED       0.294    ,  TOTAL TIME COMPLETED        0.294    


  INCREMENT    12 STARTS. ATTEMPT NUMBER  1, TIME INCREMENT  2.670E-02
 
	UNSYMMETRIC DIRECT SPARSE SOLVER RUNNING ON
 	1 HOST:        1 MPI RANK  x 7 THREADS, 1 GPU PER RANK
 	NUMBER OF EQUATIONS:     72
 	NUMBER OF RHS:           1
 	NUMBER OF FLOPS:         2.893e+04

     CHECK POINT   START OF SOLVER    

     CHECK POINT  END OF SOLVER       

       ELAPSED USER TIME (SEC)      =   0.0000    
       ELAPSED SYSTEM TIME (SEC)    =   0.0000    
       ELAPSED TOTAL CPU TIME (SEC) =   0.0000    
       ELAPSED WALLCLOCK TIME (SEC) =          0

               CONVERGENCE CHECKS FOR EQUILIBRIUM ITERATION     1


 AVERAGE FORCE                       77.1       TIME AVG. FORCE        41.6    
 LARGEST RESIDUAL FORCE             5.842E-08   AT NODE         32   DOF  2
   INSTANCE: Part Instance                                                                   
 LARGEST INCREMENT OF DISP.         4.934E-04   AT NODE         36   DOF  2
   INSTANCE: Part Instance                                                                   
 LARGEST CORRECTION TO DISP.        2.433E-08   AT NODE         36   DOF  2
   INSTANCE: Part Instance                                                                   
          THE FORCE     EQUILIBRIUM RESPONSE WAS LINEAR IN THIS INCREMENT

 ITERATION SUMMARY FOR THE INCREMENT:   1 TOTAL ITERATIONS, OF WHICH
   0 ARE SEVERE DISCONTINUITY ITERATIONS AND  1 ARE EQUILIBRIUM ITERATIONS.

 TIME INCREMENT COMPLETED  2.670E-02,  FRACTION OF STEP COMPLETED  0.320    
 STEP TIME COMPLETED       0.320    ,  TOTAL TIME COMPLETED        0.320    


  INCREMENT    13 STARTS. ATTEMPT NUMBER  1, TIME INCREMENT  2.670E-02
 
	UNSYMMETRIC DIRECT SPARSE SOLVER RUNNING ON
 	1 HOST:        1 MPI RANK  x 7 THREADS, 1 GPU PER RANK
 	NUMBER OF EQUATIONS:     72
 	NUMBER OF RHS:           1
 	NUMBER OF FLOPS:         2.893e+04

     CHECK POINT   START OF SOLVER    

     CHECK POINT  END OF SOLVER       

       ELAPSED USER TIME (SEC)      =  0.10000    
       ELAPSED SYSTEM TIME (SEC)    =   0.0000    
       ELAPSED TOTAL CPU TIME (SEC) =  0.10000    
       ELAPSED WALLCLOCK TIME (SEC) =          0

               CONVERGENCE CHECKS FOR EQUILIBRIUM ITERATION     1


 AVERAGE FORCE                       83.5       TIME AVG. FORCE        44.8    
 LARGEST RESIDUAL FORCE             5.842E-08   AT NODE         34   DOF  2
   INSTANCE: Part Instance                                                                   
 LARGEST INCREMENT OF DISP.         4.934E-04   AT NODE         36   DOF  2
   INSTANCE: Part Instance                                                                   
 LARGEST CORRECTION TO DISP.        2.433E-08   AT NODE         32   DOF  2
   INSTANCE: Part Instance                                                                   
          THE FORCE     EQUILIBRIUM RESPONSE WAS LINEAR IN THIS INCREMENT

 ITERATION SUMMARY FOR THE INCREMENT:   1 TOTAL ITERATIONS, OF WHICH
   0 ARE SEVERE DISCONTINUITY ITERATIONS AND  1 ARE EQUILIBRIUM ITERATIONS.

 TIME INCREMENT COMPLETED  2.670E-02,  FRACTION OF STEP COMPLETED  0.347    
 STEP TIME COMPLETED       0.347    ,  TOTAL TIME COMPLETED        0.347    


  INCREMENT    14 STARTS. ATTEMPT NUMBER  1, TIME INCREMENT  2.670E-02
 
	UNSYMMETRIC DIRECT SPARSE SOLVER RUNNING ON
 	1 HOST:        1 MPI RANK  x 7 THREADS, 1 GPU PER RANK
 	NUMBER OF EQUATIONS:     72
 	NUMBER OF RHS:           1
 	NUMBER OF FLOPS:         2.893e+04

     CHECK POINT   START OF SOLVER    

     CHECK POINT  END OF SOLVER       

       ELAPSED USER TIME (SEC)      =  0.10000    
       ELAPSED SYSTEM TIME (SEC)    =   0.0000    
       ELAPSED TOTAL CPU TIME (SEC) =  0.10000    
       ELAPSED WALLCLOCK TIME (SEC) =          0

               CONVERGENCE CHECKS FOR EQUILIBRIUM ITERATION     1


 AVERAGE FORCE                       89.9       TIME AVG. FORCE        48.0    
 LARGEST RESIDUAL FORCE             5.842E-08   AT NODE         35   DOF  2
   INSTANCE: Part Instance                                                                   
 LARGEST INCREMENT OF DISP.         4.934E-04   AT NODE         31   DOF  2
   INSTANCE: Part Instance                                                                   
 LARGEST CORRECTION TO DISP.        2.433E-08   AT NODE         34   DOF  2
   INSTANCE: Part Instance                                                                   
          THE FORCE     EQUILIBRIUM RESPONSE WAS LINEAR IN THIS INCREMENT

 ITERATION SUMMARY FOR THE INCREMENT:   1 TOTAL ITERATIONS, OF WHICH
   0 ARE SEVERE DISCONTINUITY ITERATIONS AND  1 ARE EQUILIBRIUM ITERATIONS.

 TIME INCREMENT COMPLETED  2.670E-02,  FRACTION OF STEP COMPLETED  0.374    
 STEP TIME COMPLETED       0.374    ,  TOTAL TIME COMPLETED        0.374    


  INCREMENT    15 STARTS. ATTEMPT NUMBER  1, TIME INCREMENT  2.670E-02
 
	UNSYMMETRIC DIRECT SPARSE SOLVER RUNNING ON
 	1 HOST:        1 MPI RANK  x 7 THREADS, 1 GPU PER RANK
 	NUMBER OF EQUATIONS:     72
 	NUMBER OF RHS:           1
 	NUMBER OF FLOPS:         2.893e+04

     CHECK POINT   START OF SOLVER    

     CHECK POINT  END OF SOLVER       

       ELAPSED USER TIME (SEC)      =  0.10000    
       ELAPSED SYSTEM TIME (SEC)    =   0.0000    
       ELAPSED TOTAL CPU TIME (SEC) =  0.10000    
       ELAPSED WALLCLOCK TIME (SEC) =          0

               CONVERGENCE CHECKS FOR EQUILIBRIUM ITERATION     1


 AVERAGE FORCE                       96.4       TIME AVG. FORCE        51.3    
 LARGEST RESIDUAL FORCE             5.842E-08   AT NODE         32   DOF  2
   INSTANCE: Part Instance                                                                   
 LARGEST INCREMENT OF DISP.         4.935E-04   AT NODE         36   DOF  2
   INSTANCE: Part Instance                                                                   
 LARGEST CORRECTION TO DISP.        2.433E-08   AT NODE         36   DOF  2
   INSTANCE: Part Instance                                                                   
          THE FORCE     EQUILIBRIUM RESPONSE WAS LINEAR IN THIS INCREMENT

 ITERATION SUMMARY FOR THE INCREMENT:   1 TOTAL ITERATIONS, OF WHICH
   0 ARE SEVERE DISCONTINUITY ITERATIONS AND  1 ARE EQUILIBRIUM ITERATIONS.

 TIME INCREMENT COMPLETED  2.670E-02,  FRACTION OF STEP COMPLETED  0.401    
 STEP TIME COMPLETED       0.401    ,  TOTAL TIME COMPLETED        0.401    


  INCREMENT    16 STARTS. ATTEMPT NUMBER  1, TIME INCREMENT  2.670E-02
 
	UNSYMMETRIC DIRECT SPARSE SOLVER RUNNING ON
 	1 HOST:        1 MPI RANK  x 7 THREADS, 1 GPU PER RANK
 	NUMBER OF EQUATIONS:     72
 	NUMBER OF RHS:           1
 	NUMBER OF FLOPS:         2.893e+04

     CHECK POINT   START OF SOLVER    

     CHECK POINT  END OF SOLVER       

       ELAPSED USER TIME (SEC)      =  0.10000    
       ELAPSED SYSTEM TIME (SEC)    =   0.0000    
       ELAPSED TOTAL CPU TIME (SEC) =  0.10000    
       ELAPSED WALLCLOCK TIME (SEC) =          0

               CONVERGENCE CHECKS FOR EQUILIBRIUM ITERATION     1


 AVERAGE FORCE                       103.       TIME AVG. FORCE        54.5    
 LARGEST RESIDUAL FORCE             5.842E-08   AT NODE         34   DOF  2
   INSTANCE: Part Instance                                                                   
 LARGEST INCREMENT OF DISP.         4.935E-04   AT NODE         31   DOF  2
   INSTANCE: Part Instance                                                                   
 LARGEST CORRECTION TO DISP.        2.433E-08   AT NODE         31   DOF  2
   INSTANCE: Part Instance                                                                   
          THE FORCE     EQUILIBRIUM RESPONSE WAS LINEAR IN THIS INCREMENT

 ITERATION SUMMARY FOR THE INCREMENT:   1 TOTAL ITERATIONS, OF WHICH
   0 ARE SEVERE DISCONTINUITY ITERATIONS AND  1 ARE EQUILIBRIUM ITERATIONS.

 TIME INCREMENT COMPLETED  2.670E-02,  FRACTION OF STEP COMPLETED  0.427    
 STEP TIME COMPLETED       0.427    ,  TOTAL TIME COMPLETED        0.427    


  INCREMENT    17 STARTS. ATTEMPT NUMBER  1, TIME INCREMENT  2.670E-02
 
	UNSYMMETRIC DIRECT SPARSE SOLVER RUNNING ON
 	1 HOST:        1 MPI RANK  x 7 THREADS, 1 GPU PER RANK
 	NUMBER OF EQUATIONS:     72
 	NUMBER OF RHS:           1
 	NUMBER OF FLOPS:         2.893e+04

     CHECK POINT   START OF SOLVER    

     CHECK POINT  END OF SOLVER       

       ELAPSED USER TIME (SEC)      =  0.10000    
       ELAPSED SYSTEM TIME (SEC)    =   0.0000    
       ELAPSED TOTAL CPU TIME (SEC) =  0.10000    
       ELAPSED WALLCLOCK TIME (SEC) =          0

               CONVERGENCE CHECKS FOR EQUILIBRIUM ITERATION     1


 AVERAGE FORCE                       109.       TIME AVG. FORCE        57.7    
 LARGEST RESIDUAL FORCE             5.842E-08   AT NODE         35   DOF  2
   INSTANCE: Part Instance                                                                   
 LARGEST INCREMENT OF DISP.         4.935E-04   AT NODE         34   DOF  2
   INSTANCE: Part Instance                                                                   
 LARGEST CORRECTION TO DISP.        2.434E-08   AT NODE         34   DOF  2
   INSTANCE: Part Instance                                                                   
          THE FORCE     EQUILIBRIUM RESPONSE WAS LINEAR IN THIS INCREMENT

 ITERATION SUMMARY FOR THE INCREMENT:   1 TOTAL ITERATIONS, OF WHICH
   0 ARE SEVERE DISCONTINUITY ITERATIONS AND  1 ARE EQUILIBRIUM ITERATIONS.

 TIME INCREMENT COMPLETED  2.670E-02,  FRACTION OF STEP COMPLETED  0.454    
 STEP TIME COMPLETED       0.454    ,  TOTAL TIME COMPLETED        0.454    


  INCREMENT    18 STARTS. ATTEMPT NUMBER  1, TIME INCREMENT  2.670E-02
 
	UNSYMMETRIC DIRECT SPARSE SOLVER RUNNING ON
 	1 HOST:        1 MPI RANK  x 7 THREADS, 1 GPU PER RANK
 	NUMBER OF EQUATIONS:     72
 	NUMBER OF RHS:           1
 	NUMBER OF FLOPS:         2.893e+04

     CHECK POINT   START OF SOLVER    

     CHECK POINT  END OF SOLVER       

       ELAPSED USER TIME (SEC)      =  0.10000    
       ELAPSED SYSTEM TIME (SEC)    =   0.0000    
       ELAPSED TOTAL CPU TIME (SEC) =  0.10000    
       ELAPSED WALLCLOCK TIME (SEC) =          0

               CONVERGENCE CHECKS FOR EQUILIBRIUM ITERATION     1


 AVERAGE FORCE                       116.       TIME AVG. FORCE        60.9    
 LARGEST RESIDUAL FORCE             5.841E-08   AT NODE         34   DOF  2
   INSTANCE: Part Instance                                                                   
 LARGEST INCREMENT OF DISP.         4.935E-04   AT NODE         36   DOF  2
   INSTANCE: Part Instance                                                                   
 LARGEST CORRECTION TO DISP.        2.434E-08   AT NODE         31   DOF  2
   INSTANCE: Part Instance                                                                   
          THE FORCE     EQUILIBRIUM RESPONSE WAS LINEAR IN THIS INCREMENT

 ITERATION SUMMARY FOR THE INCREMENT:   1 TOTAL ITERATIONS, OF WHICH
   0 ARE SEVERE DISCONTINUITY ITERATIONS AND  1 ARE EQUILIBRIUM ITERATIONS.

 TIME INCREMENT COMPLETED  2.670E-02,  FRACTION OF STEP COMPLETED  0.481    
 STEP TIME COMPLETED       0.481    ,  TOTAL TIME COMPLETED        0.481    


  INCREMENT    19 STARTS. ATTEMPT NUMBER  1, TIME INCREMENT  2.670E-02
 
	UNSYMMETRIC DIRECT SPARSE SOLVER RUNNING ON
 	1 HOST:        1 MPI RANK  x 7 THREADS, 1 GPU PER RANK
 	NUMBER OF EQUATIONS:     72
 	NUMBER OF RHS:           1
 	NUMBER OF FLOPS:         2.893e+04

     CHECK POINT   START OF SOLVER    

     CHECK POINT  END OF SOLVER       

       ELAPSED USER TIME (SEC)      =  0.10000    
       ELAPSED SYSTEM TIME (SEC)    =   0.0000    
       ELAPSED TOTAL CPU TIME (SEC) =  0.10000    
       ELAPSED WALLCLOCK TIME (SEC) =          0

               CONVERGENCE CHECKS FOR EQUILIBRIUM ITERATION     1


 AVERAGE FORCE                       122.       TIME AVG. FORCE        64.1    
 LARGEST RESIDUAL FORCE             5.841E-08   AT NODE         34   DOF  2
   INSTANCE: Part Instance                                                                   
 LARGEST INCREMENT OF DISP.         4.936E-04   AT NODE         32   DOF  2
   INSTANCE: Part Instance                                                                   
 LARGEST CORRECTION TO DISP.        2.434E-08   AT NODE         34   DOF  2
   INSTANCE: Part Instance                                                                   
          THE FORCE     EQUILIBRIUM RESPONSE WAS LINEAR IN THIS INCREMENT

 ITERATION SUMMARY FOR THE INCREMENT:   1 TOTAL ITERATIONS, OF WHICH
   0 ARE SEVERE DISCONTINUITY ITERATIONS AND  1 ARE EQUILIBRIUM ITERATIONS.

 TIME INCREMENT COMPLETED  2.670E-02,  FRACTION OF STEP COMPLETED  0.507    
 STEP TIME COMPLETED       0.507    ,  TOTAL TIME COMPLETED        0.507    


  INCREMENT    20 STARTS. ATTEMPT NUMBER  1, TIME INCREMENT  2.670E-02
 
	UNSYMMETRIC DIRECT SPARSE SOLVER RUNNING ON
 	1 HOST:        1 MPI RANK  x 7 THREADS, 1 GPU PER RANK
 	NUMBER OF EQUATIONS:     72
 	NUMBER OF RHS:           1
 	NUMBER OF FLOPS:         2.893e+04

     CHECK POINT   START OF SOLVER    

     CHECK POINT  END OF SOLVER       

       ELAPSED USER TIME (SEC)      =  0.10000    
       ELAPSED SYSTEM TIME (SEC)    =   0.0000    
       ELAPSED TOTAL CPU TIME (SEC) =  0.10000    
       ELAPSED WALLCLOCK TIME (SEC) =          0

               CONVERGENCE CHECKS FOR EQUILIBRIUM ITERATION     1


 AVERAGE FORCE                       128.       TIME AVG. FORCE        67.3    
 LARGEST RESIDUAL FORCE             5.841E-08   AT NODE         33   DOF  2
   INSTANCE: Part Instance                                                                   
 LARGEST INCREMENT OF DISP.         4.936E-04   AT NODE         36   DOF  2
   INSTANCE: Part Instance                                                                   
 LARGEST CORRECTION TO DISP.        2.434E-08   AT NODE         36   DOF  2
   INSTANCE: Part Instance                                                                   
          THE FORCE     EQUILIBRIUM RESPONSE WAS LINEAR IN THIS INCREMENT

 ITERATION SUMMARY FOR THE INCREMENT:   1 TOTAL ITERATIONS, OF WHICH
   0 ARE SEVERE DISCONTINUITY ITERATIONS AND  1 ARE EQUILIBRIUM ITERATIONS.

 TIME INCREMENT COMPLETED  2.670E-02,  FRACTION OF STEP COMPLETED  0.534    
 STEP TIME COMPLETED       0.534    ,  TOTAL TIME COMPLETED        0.534    


  INCREMENT    21 STARTS. ATTEMPT NUMBER  1, TIME INCREMENT  2.670E-02
 
	UNSYMMETRIC DIRECT SPARSE SOLVER RUNNING ON
 	1 HOST:        1 MPI RANK  x 7 THREADS, 1 GPU PER RANK
 	NUMBER OF EQUATIONS:     72
 	NUMBER OF RHS:           1
 	NUMBER OF FLOPS:         2.893e+04

     CHECK POINT   START OF SOLVER    

     CHECK POINT  END OF SOLVER       

       ELAPSED USER TIME (SEC)      =   0.0000    
       ELAPSED SYSTEM TIME (SEC)    =   0.0000    
       ELAPSED TOTAL CPU TIME (SEC) =   0.0000    
       ELAPSED WALLCLOCK TIME (SEC) =          0

               CONVERGENCE CHECKS FOR EQUILIBRIUM ITERATION     1


 AVERAGE FORCE                       135.       TIME AVG. FORCE        70.6    
 LARGEST RESIDUAL FORCE             5.841E-08   AT NODE         32   DOF  2
   INSTANCE: Part Instance                                                                   
 LARGEST INCREMENT OF DISP.         4.936E-04   AT NODE         34   DOF  2
   INSTANCE: Part Instance                                                                   
 LARGEST CORRECTION TO DISP.        2.434E-08   AT NODE         33   DOF  2
   INSTANCE: Part Instance                                                                   
          THE FORCE     EQUILIBRIUM RESPONSE WAS LINEAR IN THIS INCREMENT

 ITERATION SUMMARY FOR THE INCREMENT:   1 TOTAL ITERATIONS, OF WHICH
   0 ARE SEVERE DISCONTINUITY ITERATIONS AND  1 ARE EQUILIBRIUM ITERATIONS.

 TIME INCREMENT COMPLETED  2.670E-02,  FRACTION OF STEP COMPLETED  0.561    
 STEP TIME COMPLETED       0.561    ,  TOTAL TIME COMPLETED        0.561    


  INCREMENT    22 STARTS. ATTEMPT NUMBER  1, TIME INCREMENT  2.670E-02
 
	UNSYMMETRIC DIRECT SPARSE SOLVER RUNNING ON
 	1 HOST:        1 MPI RANK  x 7 THREADS, 1 GPU PER RANK
 	NUMBER OF EQUATIONS:     72
 	NUMBER OF RHS:           1
 	NUMBER OF FLOPS:         2.893e+04

     CHECK POINT   START OF SOLVER    

     CHECK POINT  END OF SOLVER       

       ELAPSED USER TIME (SEC)      =  0.20000    
       ELAPSED SYSTEM TIME (SEC)    =   0.0000    
       ELAPSED TOTAL CPU TIME (SEC) =  0.20000    
       ELAPSED WALLCLOCK TIME (SEC) =          0

               CONVERGENCE CHECKS FOR EQUILIBRIUM ITERATION     1


 AVERAGE FORCE                       141.       TIME AVG. FORCE        73.8    
 LARGEST RESIDUAL FORCE            -0.594       AT NODE         18   DOF  1
   INSTANCE: Part Instance                                                                   
 LARGEST INCREMENT OF DISP.         1.291E-03   AT NODE         31   DOF  2
   INSTANCE: Part Instance                                                                   
 LARGEST CORRECTION TO DISP.        7.977E-04   AT NODE         31   DOF  2
   INSTANCE: Part Instance                                                                   
          FORCE     EQUILIBRIUM NOT ACHIEVED WITHIN TOLERANCE.
 
	UNSYMMETRIC DIRECT SPARSE SOLVER RUNNING ON
 	1 HOST:        1 MPI RANK  x 7 THREADS, 1 GPU PER RANK
 	NUMBER OF EQUATIONS:     72
 	NUMBER OF RHS:           1
 	NUMBER OF FLOPS:         2.893e+04

     CHECK POINT   START OF SOLVER    

     CHECK POINT  END OF SOLVER       

       ELAPSED USER TIME (SEC)      =  0.10000    
       ELAPSED SYSTEM TIME (SEC)    =   0.0000    
       ELAPSED TOTAL CPU TIME (SEC) =  0.10000    
       ELAPSED WALLCLOCK TIME (SEC) =          0

               CONVERGENCE CHECKS FOR EQUILIBRIUM ITERATION     2


 AVERAGE FORCE                       141.       TIME AVG. FORCE        73.8    
 LARGEST RESIDUAL FORCE            -9.307E-03   AT NODE         12   DOF  1
   INSTANCE: Part Instance                                                                   
 LARGEST INCREMENT OF DISP.         1.389E-03   AT NODE         31   DOF  2
   INSTANCE: Part Instance                                                                   
 LARGEST CORRECTION TO DISP.        9.783E-05   AT NODE         31   DOF  2
   INSTANCE: Part Instance                                                                   
 ESTIMATE OF DISP.    CORRECTION    1.533E-06
 FORCE     EQUILIB. ACCEPTED BASED ON SMALL RESIDUAL AND ESTIMATED CORRECTION

 ITERATION SUMMARY FOR THE INCREMENT:   2 TOTAL ITERATIONS, OF WHICH
   0 ARE SEVERE DISCONTINUITY ITERATIONS AND  2 ARE EQUILIBRIUM ITERATIONS.

 TIME INCREMENT COMPLETED  2.670E-02,  FRACTION OF STEP COMPLETED  0.587    
 STEP TIME COMPLETED       0.587    ,  TOTAL TIME COMPLETED        0.587    


  INCREMENT    23 STARTS. ATTEMPT NUMBER  1, TIME INCREMENT  2.670E-02
 
	UNSYMMETRIC DIRECT SPARSE SOLVER RUNNING ON
 	1 HOST:        1 MPI RANK  x 7 THREADS, 1 GPU PER RANK
 	NUMBER OF EQUATIONS:     72
 	NUMBER OF RHS:           1
 	NUMBER OF FLOPS:         2.893e+04

     CHECK POINT   START OF SOLVER    

     CHECK POINT  END OF SOLVER       

       ELAPSED USER TIME (SEC)      =  0.10000    
       ELAPSED SYSTEM TIME (SEC)    =   0.0000    
       ELAPSED TOTAL CPU TIME (SEC) =  0.10000    
       ELAPSED WALLCLOCK TIME (SEC) =          0

               CONVERGENCE CHECKS FOR EQUILIBRIUM ITERATION     1


 AVERAGE FORCE                       149.       TIME AVG. FORCE        77.1    
 LARGEST RESIDUAL FORCE             -6.84       AT NODE         24   DOF  1
   INSTANCE: Part Instance                                                                   
 LARGEST INCREMENT OF DISP.         5.249E-03   AT NODE         36   DOF  2
   INSTANCE: Part Instance                                                                   
 LARGEST CORRECTION TO DISP.        3.860E-03   AT NODE         36   DOF  2
   INSTANCE: Part Instance                                                                   
          FORCE     EQUILIBRIUM NOT ACHIEVED WITHIN TOLERANCE.
 
	UNSYMMETRIC DIRECT SPARSE SOLVER RUNNING ON
 	1 HOST:        1 MPI RANK  x 7 THREADS, 1 GPU PER RANK
 	NUMBER OF EQUATIONS:     72
 	NUMBER OF RHS:           1
 	NUMBER OF FLOPS:         2.893e+04

     CHECK POINT   START OF SOLVER    

     CHECK POINT  END OF SOLVER       

       ELAPSED USER TIME (SEC)      =   0.0000    
       ELAPSED SYSTEM TIME (SEC)    =   0.0000    
       ELAPSED TOTAL CPU TIME (SEC) =   0.0000    
       ELAPSED WALLCLOCK TIME (SEC) =          0

               CONVERGENCE CHECKS FOR EQUILIBRIUM ITERATION     2


 AVERAGE FORCE                       148.       TIME AVG. FORCE        77.0    
 LARGEST RESIDUAL FORCE             -1.51       AT NODE         18   DOF  1
   INSTANCE: Part Instance                                                                   
 LARGEST INCREMENT OF DISP.         7.854E-03   AT NODE         36   DOF  2
   INSTANCE: Part Instance                                                                   
 LARGEST CORRECTION TO DISP.        2.605E-03   AT NODE         36   DOF  2
   INSTANCE: Part Instance                                                                   
          FORCE     EQUILIBRIUM NOT ACHIEVED WITHIN TOLERANCE.
 
	UNSYMMETRIC DIRECT SPARSE SOLVER RUNNING ON
 	1 HOST:        1 MPI RANK  x 7 THREADS, 1 GPU PER RANK
 	NUMBER OF EQUATIONS:     72
 	NUMBER OF RHS:           1
 	NUMBER OF FLOPS:         2.893e+04

     CHECK POINT   START OF SOLVER    

     CHECK POINT  END OF SOLVER       

       ELAPSED USER TIME (SEC)      =   0.0000    
       ELAPSED SYSTEM TIME (SEC)    =   0.0000    
       ELAPSED TOTAL CPU TIME (SEC) =   0.0000    
       ELAPSED WALLCLOCK TIME (SEC) =          1

               CONVERGENCE CHECKS FOR EQUILIBRIUM ITERATION     3


 AVERAGE FORCE                       148.       TIME AVG. FORCE        77.0    
 LARGEST RESIDUAL FORCE            -7.429E-02   AT NODE         24   DOF  1
   INSTANCE: Part Instance                                                                   
 LARGEST INCREMENT OF DISP.         8.576E-03   AT NODE         32   DOF  2
   INSTANCE: Part Instance                                                                   
 LARGEST CORRECTION TO DISP.        7.220E-04   AT NODE         31   DOF  2
   INSTANCE: Part Instance                                                                   
 ESTIMATE OF DISP.    CORRECTION    3.556E-05
 FORCE     EQUILIB. ACCEPTED BASED ON SMALL RESIDUAL AND ESTIMATED CORRECTION

 ITERATION SUMMARY FOR THE INCREMENT:   3 TOTAL ITERATIONS, OF WHICH
   0 ARE SEVERE DISCONTINUITY ITERATIONS AND  3 ARE EQUILIBRIUM ITERATIONS.

 TIME INCREMENT COMPLETED  2.670E-02,  FRACTION OF STEP COMPLETED  0.614    
 STEP TIME COMPLETED       0.614    ,  TOTAL TIME COMPLETED        0.614    


  INCREMENT    24 STARTS. ATTEMPT NUMBER  1, TIME INCREMENT  2.670E-02
 
	UNSYMMETRIC DIRECT SPARSE SOLVER RUNNING ON
 	1 HOST:        1 MPI RANK  x 7 THREADS, 1 GPU PER RANK
 	NUMBER OF EQUATIONS:     72
 	NUMBER OF RHS:           1
 	NUMBER OF FLOPS:         2.893e+04

     CHECK POINT   START OF SOLVER    

     CHECK POINT  END OF SOLVER       

       ELAPSED USER TIME (SEC)      =  0.10000    
       ELAPSED SYSTEM TIME (SEC)    =   0.0000    
       ELAPSED TOTAL CPU TIME (SEC) =  0.10000    
       ELAPSED WALLCLOCK TIME (SEC) =          0

               CONVERGENCE CHECKS FOR EQUILIBRIUM ITERATION     1


 AVERAGE FORCE                       156.       TIME AVG. FORCE        80.3    
 LARGEST RESIDUAL FORCE             -6.65       AT NODE         12   DOF  1
   INSTANCE: Part Instance                                                                   
 LARGEST INCREMENT OF DISP.         2.342E-02   AT NODE         36   DOF  2
   INSTANCE: Part Instance                                                                   
 LARGEST CORRECTION TO DISP.        1.485E-02   AT NODE         36   DOF  2
   INSTANCE: Part Instance                                                                   
          FORCE     EQUILIBRIUM NOT ACHIEVED WITHIN TOLERANCE.
 
	UNSYMMETRIC DIRECT SPARSE SOLVER RUNNING ON
 	1 HOST:        1 MPI RANK  x 7 THREADS, 1 GPU PER RANK
 	NUMBER OF EQUATIONS:     72
 	NUMBER OF RHS:           1
 	NUMBER OF FLOPS:         2.893e+04

     CHECK POINT   START OF SOLVER    

     CHECK POINT  END OF SOLVER       

       ELAPSED USER TIME (SEC)      =   0.0000    
       ELAPSED SYSTEM TIME (SEC)    =   0.0000    
       ELAPSED TOTAL CPU TIME (SEC) =   0.0000    
       ELAPSED WALLCLOCK TIME (SEC) =          0

               CONVERGENCE CHECKS FOR EQUILIBRIUM ITERATION     2


 AVERAGE FORCE                       154.       TIME AVG. FORCE        80.2    
 LARGEST RESIDUAL FORCE            -0.107       AT NODE         18   DOF  1
   INSTANCE: Part Instance                                                                   
 LARGEST INCREMENT OF DISP.         2.801E-02   AT NODE         36   DOF  2
   INSTANCE: Part Instance                                                                   
 LARGEST CORRECTION TO DISP.       -4.681E-03   AT NODE          6   DOF  1
   INSTANCE: Part Instance                                                                   
 ESTIMATE OF DISP.    CORRECTION   -7.566E-05
 FORCE     EQUILIB. ACCEPTED BASED ON SMALL RESIDUAL AND ESTIMATED CORRECTION

 ITERATION SUMMARY FOR THE INCREMENT:   2 TOTAL ITERATIONS, OF WHICH
   0 ARE SEVERE DISCONTINUITY ITERATIONS AND  2 ARE EQUILIBRIUM ITERATIONS.

 TIME INCREMENT COMPLETED  2.670E-02,  FRACTION OF STEP COMPLETED  0.641    
 STEP TIME COMPLETED       0.641    ,  TOTAL TIME COMPLETED        0.641    


  INCREMENT    25 STARTS. ATTEMPT NUMBER  1, TIME INCREMENT  2.670E-02
 
	UNSYMMETRIC DIRECT SPARSE SOLVER RUNNING ON
 	1 HOST:        1 MPI RANK  x 7 THREADS, 1 GPU PER RANK
 	NUMBER OF EQUATIONS:     72
 	NUMBER OF RHS:           1
 	NUMBER OF FLOPS:         2.893e+04

     CHECK POINT   START OF SOLVER    

     CHECK POINT  END OF SOLVER       

       ELAPSED USER TIME (SEC)      =   0.0000    
       ELAPSED SYSTEM TIME (SEC)    =   0.0000    
       ELAPSED TOTAL CPU TIME (SEC) =   0.0000    
       ELAPSED WALLCLOCK TIME (SEC) =          0

               CONVERGENCE CHECKS FOR EQUILIBRIUM ITERATION     1


 AVERAGE FORCE                       160.       TIME AVG. FORCE        83.4    
 LARGEST RESIDUAL FORCE             0.189       AT NODE         35   DOF  2
   INSTANCE: Part Instance                                                                   
 LARGEST INCREMENT OF DISP.         3.860E-02   AT NODE         36   DOF  2
   INSTANCE: Part Instance                                                                   
 LARGEST CORRECTION TO DISP.       -1.066E-02   AT NODE         36   DOF  1
   INSTANCE: Part Instance                                                                   
 ESTIMATE OF DISP.    CORRECTION    1.840E-04
 FORCE     EQUILIB. ACCEPTED BASED ON SMALL RESIDUAL AND ESTIMATED CORRECTION

 ITERATION SUMMARY FOR THE INCREMENT:   1 TOTAL ITERATIONS, OF WHICH
   0 ARE SEVERE DISCONTINUITY ITERATIONS AND  1 ARE EQUILIBRIUM ITERATIONS.

 TIME INCREMENT COMPLETED  2.670E-02,  FRACTION OF STEP COMPLETED  0.667    
 STEP TIME COMPLETED       0.667    ,  TOTAL TIME COMPLETED        0.667    


  INCREMENT    26 STARTS. ATTEMPT NUMBER  1, TIME INCREMENT  2.670E-02
 
	UNSYMMETRIC DIRECT SPARSE SOLVER RUNNING ON
 	1 HOST:        1 MPI RANK  x 7 THREADS, 1 GPU PER RANK
 	NUMBER OF EQUATIONS:     72
 	NUMBER OF RHS:           1
 	NUMBER OF FLOPS:         2.893e+04

     CHECK POINT   START OF SOLVER    

     CHECK POINT  END OF SOLVER       

       ELAPSED USER TIME (SEC)      =   0.0000    
       ELAPSED SYSTEM TIME (SEC)    =   0.0000    
       ELAPSED TOTAL CPU TIME (SEC) =   0.0000    
       ELAPSED WALLCLOCK TIME (SEC) =          0

               CONVERGENCE CHECKS FOR EQUILIBRIUM ITERATION     1


 AVERAGE FORCE                       166.       TIME AVG. FORCE        86.5    
 LARGEST RESIDUAL FORCE             7.411E-03   AT NODE         32   DOF  2
   INSTANCE: Part Instance                                                                   
 LARGEST INCREMENT OF DISP.         3.953E-02   AT NODE         31   DOF  2
   INSTANCE: Part Instance                                                                   
 LARGEST CORRECTION TO DISP.        9.354E-04   AT NODE         31   DOF  2
   INSTANCE: Part Instance                                                                   
 ESTIMATE OF DISP.    CORRECTION    1.077E-06
 FORCE     EQUILIB. ACCEPTED BASED ON SMALL RESIDUAL AND ESTIMATED CORRECTION

 ITERATION SUMMARY FOR THE INCREMENT:   1 TOTAL ITERATIONS, OF WHICH
   0 ARE SEVERE DISCONTINUITY ITERATIONS AND  1 ARE EQUILIBRIUM ITERATIONS.

 TIME INCREMENT COMPLETED  2.670E-02,  FRACTION OF STEP COMPLETED  0.694    
 STEP TIME COMPLETED       0.694    ,  TOTAL TIME COMPLETED        0.694    


  INCREMENT    27 STARTS. ATTEMPT NUMBER  1, TIME INCREMENT  2.670E-02
 
	UNSYMMETRIC DIRECT SPARSE SOLVER RUNNING ON
 	1 HOST:        1 MPI RANK  x 7 THREADS, 1 GPU PER RANK
 	NUMBER OF EQUATIONS:     72
 	NUMBER OF RHS:           1
 	NUMBER OF FLOPS:         2.893e+04

     CHECK POINT   START OF SOLVER    

     CHECK POINT  END OF SOLVER       

       ELAPSED USER TIME (SEC)      =  0.10000    
       ELAPSED SYSTEM TIME (SEC)    =   0.0000    
       ELAPSED TOTAL CPU TIME (SEC) =  0.10000    
       ELAPSED WALLCLOCK TIME (SEC) =          0

               CONVERGENCE CHECKS FOR EQUILIBRIUM ITERATION     1


 AVERAGE FORCE                       172.       TIME AVG. FORCE        89.7    
 LARGEST RESIDUAL FORCE            -6.970E-04   AT NODE         12   DOF  1
   INSTANCE: Part Instance                                                                   
 LARGEST INCREMENT OF DISP.         3.963E-02   AT NODE         36   DOF  2
   INSTANCE: Part Instance                                                                   
 LARGEST CORRECTION TO DISP.        1.785E-04   AT NODE          6   DOF  1
   INSTANCE: Part Instance                                                                   
          THE FORCE     EQUILIBRIUM EQUATIONS HAVE CONVERGED

 ITERATION SUMMARY FOR THE INCREMENT:   1 TOTAL ITERATIONS, OF WHICH
   0 ARE SEVERE DISCONTINUITY ITERATIONS AND  1 ARE EQUILIBRIUM ITERATIONS.

 TIME INCREMENT COMPLETED  2.670E-02,  FRACTION OF STEP COMPLETED  0.721    
 STEP TIME COMPLETED       0.721    ,  TOTAL TIME COMPLETED        0.721    


  INCREMENT    28 STARTS. ATTEMPT NUMBER  1, TIME INCREMENT  2.670E-02
 
	UNSYMMETRIC DIRECT SPARSE SOLVER RUNNING ON
 	1 HOST:        1 MPI RANK  x 7 THREADS, 1 GPU PER RANK
 	NUMBER OF EQUATIONS:     72
 	NUMBER OF RHS:           1
 	NUMBER OF FLOPS:         2.893e+04

     CHECK POINT   START OF SOLVER    

     CHECK POINT  END OF SOLVER       

       ELAPSED USER TIME (SEC)      =  0.10000    
       ELAPSED SYSTEM TIME (SEC)    =   0.0000    
       ELAPSED TOTAL CPU TIME (SEC) =  0.10000    
       ELAPSED WALLCLOCK TIME (SEC) =          0

               CONVERGENCE CHECKS FOR EQUILIBRIUM ITERATION     1


 AVERAGE FORCE                       177.       TIME AVG. FORCE        92.8    
 LARGEST RESIDUAL FORCE             6.172E-04   AT NODE         32   DOF  2
   INSTANCE: Part Instance                                                                   
 LARGEST INCREMENT OF DISP.         3.978E-02   AT NODE         31   DOF  2
   INSTANCE: Part Instance                                                                   
 LARGEST CORRECTION TO DISP.        1.524E-04   AT NODE         31   DOF  2
   INSTANCE: Part Instance                                                                   
          THE FORCE     EQUILIBRIUM EQUATIONS HAVE CONVERGED

 ITERATION SUMMARY FOR THE INCREMENT:   1 TOTAL ITERATIONS, OF WHICH
   0 ARE SEVERE DISCONTINUITY ITERATIONS AND  1 ARE EQUILIBRIUM ITERATIONS.

 TIME INCREMENT COMPLETED  2.670E-02,  FRACTION OF STEP COMPLETED  0.748    
 STEP TIME COMPLETED       0.748    ,  TOTAL TIME COMPLETED        0.748    


  INCREMENT    29 STARTS. ATTEMPT NUMBER  1, TIME INCREMENT  2.670E-02
 
	UNSYMMETRIC DIRECT SPARSE SOLVER RUNNING ON
 	1 HOST:        1 MPI RANK  x 7 THREADS, 1 GPU PER RANK
 	NUMBER OF EQUATIONS:     72
 	NUMBER OF RHS:           1
 	NUMBER OF FLOPS:         2.893e+04

     CHECK POINT   START OF SOLVER    

     CHECK POINT  END OF SOLVER       

       ELAPSED USER TIME (SEC)      =  0.10000    
       ELAPSED SYSTEM TIME (SEC)    =  0.10000    
       ELAPSED TOTAL CPU TIME (SEC) =  0.20000    
       ELAPSED WALLCLOCK TIME (SEC) =          0

               CONVERGENCE CHECKS FOR EQUILIBRIUM ITERATION     1


 AVERAGE FORCE                       183.       TIME AVG. FORCE        96.0    
 LARGEST RESIDUAL FORCE            -3.817E-03   AT NODE         32   DOF  2
   INSTANCE: Part Instance                                                                   
 LARGEST INCREMENT OF DISP.         3.921E-02   AT NODE         31   DOF  2
   INSTANCE: Part Instance                                                                   
 LARGEST CORRECTION TO DISP.        8.430E-04   AT NODE         12   DOF  1
   INSTANCE: Part Instance                                                                   
 ESTIMATE OF DISP.    CORRECTION   -3.119E-07
 FORCE     EQUILIB. ACCEPTED BASED ON SMALL RESIDUAL AND ESTIMATED CORRECTION

 ITERATION SUMMARY FOR THE INCREMENT:   1 TOTAL ITERATIONS, OF WHICH
   0 ARE SEVERE DISCONTINUITY ITERATIONS AND  1 ARE EQUILIBRIUM ITERATIONS.

 TIME INCREMENT COMPLETED  2.670E-02,  FRACTION OF STEP COMPLETED  0.774    
 STEP TIME COMPLETED       0.774    ,  TOTAL TIME COMPLETED        0.774    


  INCREMENT    30 STARTS. ATTEMPT NUMBER  1, TIME INCREMENT  2.670E-02
 
	UNSYMMETRIC DIRECT SPARSE SOLVER RUNNING ON
 	1 HOST:        1 MPI RANK  x 7 THREADS, 1 GPU PER RANK
 	NUMBER OF EQUATIONS:     72
 	NUMBER OF RHS:           1
 	NUMBER OF FLOPS:         2.893e+04

     CHECK POINT   START OF SOLVER    

     CHECK POINT  END OF SOLVER       

       ELAPSED USER TIME (SEC)      =   0.0000    
       ELAPSED SYSTEM TIME (SEC)    =   0.0000    
       ELAPSED TOTAL CPU TIME (SEC) =   0.0000    
       ELAPSED WALLCLOCK TIME (SEC) =          0

               CONVERGENCE CHECKS FOR EQUILIBRIUM ITERATION     1


 AVERAGE FORCE                       189.       TIME AVG. FORCE        99.1    
 LARGEST RESIDUAL FORCE            -2.640E-03   AT NODE         18   DOF  1
   INSTANCE: Part Instance                                                                   
 LARGEST INCREMENT OF DISP.         3.892E-02   AT NODE         36   DOF  2
   INSTANCE: Part Instance                                                                   
 LARGEST CORRECTION TO DISP.        5.558E-04   AT NODE          6   DOF  1
   INSTANCE: Part Instance                                                                   
 ESTIMATE OF DISP.    CORRECTION   -1.476E-07
 FORCE     EQUILIB. ACCEPTED BASED ON SMALL RESIDUAL AND ESTIMATED CORRECTION

 ITERATION SUMMARY FOR THE INCREMENT:   1 TOTAL ITERATIONS, OF WHICH
   0 ARE SEVERE DISCONTINUITY ITERATIONS AND  1 ARE EQUILIBRIUM ITERATIONS.

 TIME INCREMENT COMPLETED  2.670E-02,  FRACTION OF STEP COMPLETED  0.801    
 STEP TIME COMPLETED       0.801    ,  TOTAL TIME COMPLETED        0.801    


  INCREMENT    31 STARTS. ATTEMPT NUMBER  1, TIME INCREMENT  2.670E-02
 
	UNSYMMETRIC DIRECT SPARSE SOLVER RUNNING ON
 	1 HOST:        1 MPI RANK  x 7 THREADS, 1 GPU PER RANK
 	NUMBER OF EQUATIONS:     72
 	NUMBER OF RHS:           1
 	NUMBER OF FLOPS:         2.893e+04

     CHECK POINT   START OF SOLVER    

     CHECK POINT  END OF SOLVER       

       ELAPSED USER TIME (SEC)      =   0.0000    
       ELAPSED SYSTEM TIME (SEC)    =   0.0000    
       ELAPSED TOTAL CPU TIME (SEC) =   0.0000    
       ELAPSED WALLCLOCK TIME (SEC) =          0

               CONVERGENCE CHECKS FOR EQUILIBRIUM ITERATION     1


 AVERAGE FORCE                       195.       TIME AVG. FORCE        102.    
 LARGEST RESIDUAL FORCE             6.176E-04   AT NODE         34   DOF  2
   INSTANCE: Part Instance                                                                   
 LARGEST INCREMENT OF DISP.         3.906E-02   AT NODE         31   DOF  2
   INSTANCE: Part Instance                                                                   
 LARGEST CORRECTION TO DISP.        1.470E-04   AT NODE         31   DOF  2
   INSTANCE: Part Instance                                                                   
          THE FORCE     EQUILIBRIUM EQUATIONS HAVE CONVERGED

 ITERATION SUMMARY FOR THE INCREMENT:   1 TOTAL ITERATIONS, OF WHICH
   0 ARE SEVERE DISCONTINUITY ITERATIONS AND  1 ARE EQUILIBRIUM ITERATIONS.

 TIME INCREMENT COMPLETED  2.670E-02,  FRACTION OF STEP COMPLETED  0.828    
 STEP TIME COMPLETED       0.828    ,  TOTAL TIME COMPLETED        0.828    


  INCREMENT    32 STARTS. ATTEMPT NUMBER  1, TIME INCREMENT  2.670E-02
 
	UNSYMMETRIC DIRECT SPARSE SOLVER RUNNING ON
 	1 HOST:        1 MPI RANK  x 7 THREADS, 1 GPU PER RANK
 	NUMBER OF EQUATIONS:     72
 	NUMBER OF RHS:           1
 	NUMBER OF FLOPS:         2.893e+04

     CHECK POINT   START OF SOLVER    

     CHECK POINT  END OF SOLVER       

       ELAPSED USER TIME (SEC)      =  0.10000    
       ELAPSED SYSTEM TIME (SEC)    =   0.0000    
       ELAPSED TOTAL CPU TIME (SEC) =  0.10000    
       ELAPSED WALLCLOCK TIME (SEC) =          0

               CONVERGENCE CHECKS FOR EQUILIBRIUM ITERATION     1


 AVERAGE FORCE                       201.       TIME AVG. FORCE        105.    
 LARGEST RESIDUAL FORCE             6.491E-04   AT NODE         33   DOF  2
   INSTANCE: Part Instance                                                                   
 LARGEST INCREMENT OF DISP.         3.921E-02   AT NODE         36   DOF  2
   INSTANCE: Part Instance                                                                   
 LARGEST CORRECTION TO DISP.        1.506E-04   AT NODE         36   DOF  2
   INSTANCE: Part Instance                                                                   
          THE FORCE     EQUILIBRIUM EQUATIONS HAVE CONVERGED

 ITERATION SUMMARY FOR THE INCREMENT:   1 TOTAL ITERATIONS, OF WHICH
   0 ARE SEVERE DISCONTINUITY ITERATIONS AND  1 ARE EQUILIBRIUM ITERATIONS.

 TIME INCREMENT COMPLETED  2.670E-02,  FRACTION OF STEP COMPLETED  0.854    
 STEP TIME COMPLETED       0.854    ,  TOTAL TIME COMPLETED        0.854    


  INCREMENT    33 STARTS. ATTEMPT NUMBER  1, TIME INCREMENT  2.670E-02
 
	UNSYMMETRIC DIRECT SPARSE SOLVER RUNNING ON
 	1 HOST:        1 MPI RANK  x 7 THREADS, 1 GPU PER RANK
 	NUMBER OF EQUATIONS:     72
 	NUMBER OF RHS:           1
 	NUMBER OF FLOPS:         2.893e+04

     CHECK POINT   START OF SOLVER    

     CHECK POINT  END OF SOLVER       

       ELAPSED USER TIME (SEC)      =  0.10000    
       ELAPSED SYSTEM TIME (SEC)    =   0.0000    
       ELAPSED TOTAL CPU TIME (SEC) =  0.10000    
       ELAPSED WALLCLOCK TIME (SEC) =          0

               CONVERGENCE CHECKS FOR EQUILIBRIUM ITERATION     1


 AVERAGE FORCE                       206.       TIME AVG. FORCE        108.    
 LARGEST RESIDUAL FORCE             6.374E-04   AT NODE         35   DOF  2
   INSTANCE: Part Instance                                                                   
 LARGEST INCREMENT OF DISP.         3.936E-02   AT NODE         31   DOF  2
   INSTANCE: Part Instance                                                                   
 LARGEST CORRECTION TO DISP.        1.490E-04   AT NODE         31   DOF  2
   INSTANCE: Part Instance                                                                   
          THE FORCE     EQUILIBRIUM EQUATIONS HAVE CONVERGED

 ITERATION SUMMARY FOR THE INCREMENT:   1 TOTAL ITERATIONS, OF WHICH
   0 ARE SEVERE DISCONTINUITY ITERATIONS AND  1 ARE EQUILIBRIUM ITERATIONS.

 TIME INCREMENT COMPLETED  2.670E-02,  FRACTION OF STEP COMPLETED  0.881    
 STEP TIME COMPLETED       0.881    ,  TOTAL TIME COMPLETED        0.881    


  INCREMENT    34 STARTS. ATTEMPT NUMBER  1, TIME INCREMENT  2.670E-02
 
	UNSYMMETRIC DIRECT SPARSE SOLVER RUNNING ON
 	1 HOST:        1 MPI RANK  x 7 THREADS, 1 GPU PER RANK
 	NUMBER OF EQUATIONS:     72
 	NUMBER OF RHS:           1
 	NUMBER OF FLOPS:         2.893e+04

     CHECK POINT   START OF SOLVER    

     CHECK POINT  END OF SOLVER       

       ELAPSED USER TIME (SEC)      =  0.10000    
       ELAPSED SYSTEM TIME (SEC)    =   0.0000    
       ELAPSED TOTAL CPU TIME (SEC) =  0.10000    
       ELAPSED WALLCLOCK TIME (SEC) =          0

               CONVERGENCE CHECKS FOR EQUILIBRIUM ITERATION     1


 AVERAGE FORCE                       212.       TIME AVG. FORCE        111.    
 LARGEST RESIDUAL FORCE             6.387E-03   AT NODE         35   DOF  2
   INSTANCE: Part Instance                                                                   
 LARGEST INCREMENT OF DISP.         4.009E-02   AT NODE         36   DOF  2
   INSTANCE: Part Instance                                                                   
 LARGEST CORRECTION TO DISP.        7.253E-04   AT NODE         36   DOF  2
   INSTANCE: Part Instance                                                                   
 ESTIMATE OF DISP.    CORRECTION    4.795E-07
 FORCE     EQUILIB. ACCEPTED BASED ON SMALL RESIDUAL AND ESTIMATED CORRECTION

 ITERATION SUMMARY FOR THE INCREMENT:   1 TOTAL ITERATIONS, OF WHICH
   0 ARE SEVERE DISCONTINUITY ITERATIONS AND  1 ARE EQUILIBRIUM ITERATIONS.

 TIME INCREMENT COMPLETED  2.670E-02,  FRACTION OF STEP COMPLETED  0.908    
 STEP TIME COMPLETED       0.908    ,  TOTAL TIME COMPLETED        0.908    


  INCREMENT    35 STARTS. ATTEMPT NUMBER  1, TIME INCREMENT  2.670E-02
 
	UNSYMMETRIC DIRECT SPARSE SOLVER RUNNING ON
 	1 HOST:        1 MPI RANK  x 7 THREADS, 1 GPU PER RANK
 	NUMBER OF EQUATIONS:     72
 	NUMBER OF RHS:           1
 	NUMBER OF FLOPS:         2.893e+04

     CHECK POINT   START OF SOLVER    

     CHECK POINT  END OF SOLVER       

       ELAPSED USER TIME (SEC)      =   0.0000    
       ELAPSED SYSTEM TIME (SEC)    =   0.0000    
       ELAPSED TOTAL CPU TIME (SEC) =   0.0000    
       ELAPSED WALLCLOCK TIME (SEC) =          0

               CONVERGENCE CHECKS FOR EQUILIBRIUM ITERATION     1


 AVERAGE FORCE                       218.       TIME AVG. FORCE        114.    
 LARGEST RESIDUAL FORCE             0.130       AT NODE         33   DOF  2
   INSTANCE: Part Instance                                                                   
 LARGEST INCREMENT OF DISP.         4.580E-02   AT NODE         36   DOF  2
   INSTANCE: Part Instance                                                                   
 LARGEST CORRECTION TO DISP.        5.712E-03   AT NODE         31   DOF  2
   INSTANCE: Part Instance                                                                   
 ESTIMATE OF DISP.    CORRECTION    7.119E-05
 FORCE     EQUILIB. ACCEPTED BASED ON SMALL RESIDUAL AND ESTIMATED CORRECTION

 ITERATION SUMMARY FOR THE INCREMENT:   1 TOTAL ITERATIONS, OF WHICH
   0 ARE SEVERE DISCONTINUITY ITERATIONS AND  1 ARE EQUILIBRIUM ITERATIONS.

 TIME INCREMENT COMPLETED  2.670E-02,  FRACTION OF STEP COMPLETED  0.934    
 STEP TIME COMPLETED       0.934    ,  TOTAL TIME COMPLETED        0.934    


  INCREMENT    36 STARTS. ATTEMPT NUMBER  1, TIME INCREMENT  2.670E-02
 
	UNSYMMETRIC DIRECT SPARSE SOLVER RUNNING ON
 	1 HOST:        1 MPI RANK  x 7 THREADS, 1 GPU PER RANK
 	NUMBER OF EQUATIONS:     72
 	NUMBER OF RHS:           1
 	NUMBER OF FLOPS:         2.893e+04

     CHECK POINT   START OF SOLVER    

     CHECK POINT  END OF SOLVER       

       ELAPSED USER TIME (SEC)      =   0.0000    
       ELAPSED SYSTEM TIME (SEC)    =   0.0000    
       ELAPSED TOTAL CPU TIME (SEC) =   0.0000    
       ELAPSED WALLCLOCK TIME (SEC) =          0

               CONVERGENCE CHECKS FOR EQUILIBRIUM ITERATION     1


 AVERAGE FORCE                       223.       TIME AVG. FORCE        117.    
 LARGEST RESIDUAL FORCE             1.430E-03   AT NODE         34   DOF  2
   INSTANCE: Part Instance                                                                   
 LARGEST INCREMENT OF DISP.         4.607E-02   AT NODE         36   DOF  2
   INSTANCE: Part Instance                                                                   
 LARGEST CORRECTION TO DISP.        2.663E-04   AT NODE         36   DOF  2
   INSTANCE: Part Instance                                                                   
          THE FORCE     EQUILIBRIUM EQUATIONS HAVE CONVERGED

 ITERATION SUMMARY FOR THE INCREMENT:   1 TOTAL ITERATIONS, OF WHICH
   0 ARE SEVERE DISCONTINUITY ITERATIONS AND  1 ARE EQUILIBRIUM ITERATIONS.

 TIME INCREMENT COMPLETED  2.670E-02,  FRACTION OF STEP COMPLETED  0.961    
 STEP TIME COMPLETED       0.961    ,  TOTAL TIME COMPLETED        0.961    


  INCREMENT    37 STARTS. ATTEMPT NUMBER  1, TIME INCREMENT  2.670E-02
 
	UNSYMMETRIC DIRECT SPARSE SOLVER RUNNING ON
 	1 HOST:        1 MPI RANK  x 7 THREADS, 1 GPU PER RANK
 	NUMBER OF EQUATIONS:     72
 	NUMBER OF RHS:           1
 	NUMBER OF FLOPS:         2.893e+04

     CHECK POINT   START OF SOLVER    

     CHECK POINT  END OF SOLVER       

       ELAPSED USER TIME (SEC)      =  0.10000    
       ELAPSED SYSTEM TIME (SEC)    =   0.0000    
       ELAPSED TOTAL CPU TIME (SEC) =  0.10000    
       ELAPSED WALLCLOCK TIME (SEC) =          0

               CONVERGENCE CHECKS FOR EQUILIBRIUM ITERATION     1


 AVERAGE FORCE                       229.       TIME AVG. FORCE        120.    
 LARGEST RESIDUAL FORCE            -1.185E-03   AT NODE         24   DOF  1
   INSTANCE: Part Instance                                                                   
 LARGEST INCREMENT OF DISP.         4.624E-02   AT NODE         31   DOF  2
   INSTANCE: Part Instance                                                                   
 LARGEST CORRECTION TO DISP.        2.045E-04   AT NODE         36   DOF  1
   INSTANCE: Part Instance                                                                   
          THE FORCE     EQUILIBRIUM EQUATIONS HAVE CONVERGED

 ITERATION SUMMARY FOR THE INCREMENT:   1 TOTAL ITERATIONS, OF WHICH
   0 ARE SEVERE DISCONTINUITY ITERATIONS AND  1 ARE EQUILIBRIUM ITERATIONS.

 TIME INCREMENT COMPLETED  2.670E-02,  FRACTION OF STEP COMPLETED  0.988    
 STEP TIME COMPLETED       0.988    ,  TOTAL TIME COMPLETED        0.988    


  INCREMENT    38 STARTS. ATTEMPT NUMBER  1, TIME INCREMENT  1.210E-02
 
	UNSYMMETRIC DIRECT SPARSE SOLVER RUNNING ON
 	1 HOST:        1 MPI RANK  x 7 THREADS, 1 GPU PER RANK
 	NUMBER OF EQUATIONS:     72
 	NUMBER OF RHS:           1
 	NUMBER OF FLOPS:         2.893e+04

     CHECK POINT   START OF SOLVER    

     CHECK POINT  END OF SOLVER       

       ELAPSED USER TIME (SEC)      =  0.10000    
       ELAPSED SYSTEM TIME (SEC)    =   0.0000    
       ELAPSED TOTAL CPU TIME (SEC) =  0.10000    
       ELAPSED WALLCLOCK TIME (SEC) =          0

               CONVERGENCE CHECKS FOR EQUILIBRIUM ITERATION     1


 AVERAGE FORCE                       231.       TIME AVG. FORCE        123.    
 LARGEST RESIDUAL FORCE             2.895E-04   AT NODE         35   DOF  2
   INSTANCE: Part Instance                                                                   
 LARGEST INCREMENT OF DISP.         2.102E-02   AT NODE         36   DOF  2
   INSTANCE: Part Instance                                                                   
 LARGEST CORRECTION TO DISP.        6.912E-05   AT NODE         36   DOF  2
   INSTANCE: Part Instance                                                                   
          THE FORCE     EQUILIBRIUM EQUATIONS HAVE CONVERGED

 ITERATION SUMMARY FOR THE INCREMENT:   1 TOTAL ITERATIONS, OF WHICH
   0 ARE SEVERE DISCONTINUITY ITERATIONS AND  1 ARE EQUILIBRIUM ITERATIONS.

 TIME INCREMENT COMPLETED  1.210E-02,  FRACTION OF STEP COMPLETED   1.00    
 STEP TIME COMPLETED        1.00    ,  TOTAL TIME COMPLETED         1.00    


          THE ANALYSIS HAS BEEN COMPLETED



     ANALYSIS SUMMARY:
     TOTAL OF         38  INCREMENTS
                       0  CUTBACKS IN AUTOMATIC INCREMENTATION
                      42  ITERATIONS INCLUDING CONTACT ITERATIONS IF PRESENT
                      42  PASSES THROUGH THE EQUATION SOLVER OF WHICH 
                      42  INVOLVE MATRIX DECOMPOSITION, INCLUDING
                       0  DECOMPOSITION(S) OF THE MASS MATRIX
                       1  REORDERING OF EQUATIONS TO MINIMIZE WAVEFRONT
                       0  ADDITIONAL RESIDUAL EVALUATIONS FOR LINE SEARCHES
                       0  ADDITIONAL OPERATOR EVALUATIONS FOR LINE SEARCHES
                       1  WARNING MESSAGES DURING USER INPUT PROCESSING
                       0  WARNING MESSAGES DURING ANALYSIS
                       0  ANALYSIS WARNINGS ARE NUMERICAL PROBLEM MESSAGES
                       0  ANALYSIS WARNINGS ARE NEGATIVE EIGENVALUE MESSAGES
                       0  ERROR MESSAGES



     JOB TIME SUMMARY
       USER TIME (SEC)      =   5.3000    
       SYSTEM TIME (SEC)    =   2.4000    
       TOTAL CPU TIME (SEC) =   7.7000    
       WALLCLOCK TIME (SEC) =          6
